-------------------------------------------------------
          Amber 12 SANDER                              2012
          -------------------------------------------------------

  [-O]verwriting output

File Assignments:

 Here is the input file:

production run
 &cntrl
   ig=803645,
   irest=1, ntx=5,
   nstlim=50000, dt=0.002,
   ntc=2, ntf=1, tol=0.000001,
   ntb=2, nscm=50000,
   ntt=3, gamma_ln=2.0, temp0=300.0,
   ntp=1, taup=5.0,
   cut=10.0,
   ioutfm=1,
   ntpr=100, ntwx=100, ntwr=50000, iwrap=1,
   nmropt=1,
 /
 &wt
  type='DUMPFREQ', istep1=100,
 /
 &wt
  type='END',
 /
DISANG=run_-15_0.disang
DUMPAVE=run_-15_0.dat

--------------------------------------------------------------------------------
   1.  RESOURCE   USE:
--------------------------------------------------------------------------------

 getting new box info from bottom of inpcrd

 NATOM  =    4342 NTYPES =       9 NBONH =    4332 MBONA  =       9
 NTHETH =      25 MTHETA =      11 NPHIH =      43 MPHIA  =      24
 NHPARM =       0 NPARM  =       0 NNB   =    5859 NRES   =    1443
 NBONA  =       9 NTHETA =      11 NPHIA =      24 NUMBND =      13
 NUMANG =      21 NPTRA  =      20 NATYP =      10 NPHB   =       1
 IFBOX  =       1 NMXRS  =      10 IFCAP =       0 NEXTRA =       0
 NCOPY  =       0

     BOX TYPE: RECTILINEAR

--------------------------------------------------------------------------------
   2.  CONTROL  DATA  FOR  THE  RUN
--------------------------------------------------------------------------------

ACE

General flags:
     imin    =       0, nmropt  =       1

Nature and format of input:
     ntx     =       5, irest   =       1, ntrx    =       1

Nature and format of output:
     ntxo    =       1, ntpr    =     100, ntrx    =       1, ntwr    =   50000
     iwrap   =       1, ntwx    =     100, ntwv    =       0, ntwe    =       0
     ioutfm  =       1, ntwprt  =       0, idecomp =       0, rbornstat=      0

Potential function:
     ntf     =       1, ntb     =       2, igb     =       0, nsnb    =      25
     ipol    =       0, gbsa    =       0, iesp    =       0
     dielc   =   1.00000, cut     =  10.00000, intdiel =   1.00000

Frozen or restrained atoms:
     ibelly  =       0, ntr     =       0

Molecular dynamics:
     nstlim  =     50000, nscm    =     50000, nrespa  =         1
     t       =   0.00000, dt      =   0.00200, vlimit  =  20.00000

Langevin dynamics temperature regulation:
     ig      =  803645
     temp0   = 300.00000, tempi   =   0.00000, gamma_ln=   2.00000

Pressure regulation:
     ntp     =       1
     pres0   =   1.00000, comp    =  44.60000, taup    =   5.00000

SHAKE:
     ntc     =       2, jfastw  =       0
     tol     =   0.00000

NMR refinement options:
     iscale  =       0, noeskp  =       1, ipnlty  =       1, mxsub   =       1
     scalm   = 100.00000, pencut  =   0.10000, tausw   =   0.10000

Ewald parameters:
     verbose =       0, ew_type =       0, nbflag  =       1, use_pme =       1
     vdwmeth =       1, eedmeth =       1, netfrc  =       1
     Box X =   35.329   Box Y =   37.510   Box Z =   33.304
     Alpha =   90.000   Beta  =   90.000   Gamma =   90.000
     NFFT1 =   36       NFFT2 =   40       NFFT3 =   36
     Cutoff=   10.000   Tol   =0.100E-04
     Ewald Coefficient =  0.27511
     Interpolation order =    4

--------------------------------------------------------------------------------
   3.  ATOMIC COORDINATES AND VELOCITIES
--------------------------------------------------------------------------------

ACE
 begin time read from input coords =  1100.000 ps

           Begin reading energy term weight changes/NMR restraints
 WEIGHT CHANGES:
 DUMPFREQ    100      0    0.000000    0.000000      0      0
                         ** No weight changes given **

 RESTRAINTS:
 Requested file redirections:
  DISANG    = run_-15_0.disang
  DUMPAVE   = run_-15_0.dat
 Restraints will be read from file: run_-15_0.disang
Here are comments from the DISANG input file:

                       Number of restraints read =     2

                  Done reading weight changes/NMR restraints

 Number of triangulated 3-point waters found:     1440

     Sum of charges from parm topology file =  -0.00000000
     Forcing neutrality...

--------------------------------------------------------------------------------
   4.  RESULTS
 NSTEP =      100   TIME(PS) =    1100.200  TEMP(K) =   301.34  PRESS =   125.1
 Etot   =    -11113.4804  EKtot   =      2603.0682  EPtot      =    -13716.5486
 BOND   =         2.6153  ANGLE   =        15.8886  DIHED      =        11.9747
 1-4 NB =         2.5486  1-4 EEL =        42.2416  VDWAALS    =      2044.7345
 EELEC  =    -15839.3360  EHBOND  =         0.0000  RESTRAINT  =         2.7841
 EAMBER (non-restraint)  =    -13719.3327
 EKCMT  =      1282.9494  VIRIAL  =      1163.7050  VOLUME     =     44143.3085
                                                    Density    =         0.9813
 Ewald error estimate:   0.4403E-03
 ------------------------------------------------------------------------------

      A V E R A G E S   O V E R   50000 S T E P S

 NSTEP =    50000   TIME(PS) =    1200.000  TEMP(K) =   300.45  PRESS =    -0.4
 Etot   =    -11157.2756  EKtot   =      2595.3452  EPtot      =    -13752.6208
 BOND   =         3.8127  ANGLE   =        16.7804  DIHED      =        12.4053
 1-4 NB =         2.4505  1-4 EEL =        40.9924  VDWAALS    =      2039.7039
 EELEC  =    -15870.3314  EHBOND  =         0.0000  RESTRAINT  =         1.5654
 EAMBER (non-restraint)  =    -13754.1862
 EKCMT  =      1292.4937  VIRIAL  =      1292.9132  VOLUME     =     43983.7428
                                                    Density    =         0.9849
 Ewald error estimate:   0.1799E-03
 ------------------------------------------------------------------------------

      R M S  F L U C T U A T I O N S

 NSTEP =    50000   TIME(PS) =    1200.000  TEMP(K) =     4.51  PRESS =   284.2
 Etot   =        69.0854  EKtot   =        38.9613  EPtot      =        56.0768
 BOND   =         1.7221  ANGLE   =         3.1039  DIHED      =         1.3458
 1-4 NB =         0.6226  1-4 EEL =         1.6156  VDWAALS    =        59.2320
 EELEC  =        94.6536  EHBOND  =         0.0000  RESTRAINT  =         1.2661
 EAMBER (non-restraint)  =        54.8107
 EKCMT  =        27.7275  VIRIAL  =       269.4636  VOLUME     =        87.7948
                                                    Density    =         0.0020
 Ewald error estimate:   0.1346E-03
 ------------------------------------------------------------------------------
