-------------------------------------------------------
          Amber 12 SANDER                              2012
          -------------------------------------------------------

  [-O]verwriting output

File Assignments:

 Here is the input file:

production run
 &cntrl
   ig=883434,
   irest=1, ntx=5,
   nstlim=50000, dt=0.002,
   ntc=2, ntf=1, tol=0.000001,
   ntb=2, nscm=50000,
   ntt=3, gamma_ln=2.0, temp0=300.0,
   ntp=1, taup=5.0,
   cut=10.0,
   ioutfm=1,
   ntpr=100, ntwx=100, ntwr=50000, iwrap=1,
   nmropt=1,
 /
 &wt
  type='DUMPFREQ', istep1=100,
 /
 &wt
  type='END',
 /
DISANG=run_-180_0.disang
DUMPAVE=run_-180_0.dat

--------------------------------------------------------------------------------
   1.  RESOURCE   USE:
--------------------------------------------------------------------------------

 getting new box info from bottom of inpcrd

 NATOM  =    4342 NTYPES =       9 NBONH =    4332 MBONA  =       9
 NTHETH =      25 MTHETA =      11 NPHIH =      43 MPHIA  =      24
 NHPARM =       0 NPARM  =       0 NNB   =    5859 NRES   =    1443
 NBONA  =       9 NTHETA =      11 NPHIA =      24 NUMBND =      13
 NUMANG =      21 NPTRA  =      20 NATYP =      10 NPHB   =       1
 IFBOX  =       1 NMXRS  =      10 IFCAP =       0 NEXTRA =       0
 NCOPY  =       0

     BOX TYPE: RECTILINEAR

--------------------------------------------------------------------------------
   2.  CONTROL  DATA  FOR  THE  RUN
--------------------------------------------------------------------------------

ACE

General flags:
     imin    =       0, nmropt  =       1

Nature and format of input:
     ntx     =       5, irest   =       1, ntrx    =       1

Nature and format of output:
     ntxo    =       1, ntpr    =     100, ntrx    =       1, ntwr    =   50000
     iwrap   =       1, ntwx    =     100, ntwv    =       0, ntwe    =       0
     ioutfm  =       1, ntwprt  =       0, idecomp =       0, rbornstat=      0

Potential function:
     ntf     =       1, ntb     =       2, igb     =       0, nsnb    =      25
     ipol    =       0, gbsa    =       0, iesp    =       0
     dielc   =   1.00000, cut     =  10.00000, intdiel =   1.00000

Frozen or restrained atoms:
     ibelly  =       0, ntr     =       0

Molecular dynamics:
     nstlim  =     50000, nscm    =     50000, nrespa  =         1
     t       =   0.00000, dt      =   0.00200, vlimit  =  20.00000

Langevin dynamics temperature regulation:
     ig      =  883434
     temp0   = 300.00000, tempi   =   0.00000, gamma_ln=   2.00000

Pressure regulation:
     ntp     =       1
     pres0   =   1.00000, comp    =  44.60000, taup    =   5.00000

SHAKE:
     ntc     =       2, jfastw  =       0
     tol     =   0.00000

NMR refinement options:
     iscale  =       0, noeskp  =       1, ipnlty  =       1, mxsub   =       1
     scalm   = 100.00000, pencut  =   0.10000, tausw   =   0.10000

Ewald parameters:
     verbose =       0, ew_type =       0, nbflag  =       1, use_pme =       1
     vdwmeth =       1, eedmeth =       1, netfrc  =       1
     Box X =   35.287   Box Y =   37.465   Box Z =   33.265
     Alpha =   90.000   Beta  =   90.000   Gamma =   90.000
     NFFT1 =   36       NFFT2 =   40       NFFT3 =   36
     Cutoff=   10.000   Tol   =0.100E-04
     Ewald Coefficient =  0.27511
     Interpolation order =    4

--------------------------------------------------------------------------------
   3.  ATOMIC COORDINATES AND VELOCITIES
--------------------------------------------------------------------------------

ACE
 begin time read from input coords =  1100.000 ps

           Begin reading energy term weight changes/NMR restraints
 WEIGHT CHANGES:
 DUMPFREQ    100      0    0.000000    0.000000      0      0
                         ** No weight changes given **

 RESTRAINTS:
 Requested file redirections:
  DISANG    = run_-180_0.disang
  DUMPAVE   = run_-180_0.dat
 Restraints will be read from file: run_-180_0.disang
Here are comments from the DISANG input file:

                       Number of restraints read =     2

                  Done reading weight changes/NMR restraints

 Number of triangulated 3-point waters found:     1440

     Sum of charges from parm topology file =  -0.00000000
     Forcing neutrality...

--------------------------------------------------------------------------------
   4.  RESULTS
 NSTEP =      100   TIME(PS) =    1100.200  TEMP(K) =   322.24  PRESS =    84.3
 Etot   =    -10797.2506  EKtot   =      2783.6524  EPtot      =    -13580.9030
 BOND   =        26.9851  ANGLE   =        83.8743  DIHED      =        25.9577
 1-4 NB =         3.8756  1-4 EEL =        26.9803  VDWAALS    =      2049.6777
 EELEC  =    -15803.2060  EHBOND  =         0.0000  RESTRAINT  =         4.9523
 EAMBER (non-restraint)  =    -13585.8554
 EKCMT  =      1307.8648  VIRIAL  =      1227.7684  VOLUME     =     44003.3410
                                                    Density    =         0.9845
 Ewald error estimate:   0.2339E-03
 ------------------------------------------------------------------------------

      A V E R A G E S   O V E R   50000 S T E P S

 NSTEP =    50000   TIME(PS) =    1200.000  TEMP(K) =   300.47  PRESS =     6.0
 Etot   =    -11144.4605  EKtot   =      2595.5617  EPtot      =    -13740.0222
 BOND   =         3.8424  ANGLE   =        15.1972  DIHED      =        16.3767
 1-4 NB =         2.5036  1-4 EEL =        34.4866  VDWAALS    =      2042.0633
 EELEC  =    -15855.7844  EHBOND  =         0.0000  RESTRAINT  =         1.2925
 EAMBER (non-restraint)  =    -13741.3147
 EKCMT  =      1293.2614  VIRIAL  =      1287.5415  VOLUME     =     44053.2689
                                                    Density    =         0.9833
 Ewald error estimate:   0.1778E-03
 ------------------------------------------------------------------------------

      R M S  F L U C T U A T I O N S

 NSTEP =    50000   TIME(PS) =    1200.000  TEMP(K) =     4.77  PRESS =   283.8
 Etot   =        72.8248  EKtot   =        41.2361  EPtot      =        56.6593
 BOND   =         2.5625  ANGLE   =         5.2011  DIHED      =         2.6652
 1-4 NB =         0.7416  1-4 EEL =         1.9798  VDWAALS    =        56.2141
 EELEC  =        88.3545  EHBOND  =         0.0000  RESTRAINT  =         4.2910
 EAMBER (non-restraint)  =        52.3684
 EKCMT  =        27.5834  VIRIAL  =       269.3423  VOLUME     =        74.8860
                                                    Density    =         0.0017
 Ewald error estimate:   0.1346E-03
 ------------------------------------------------------------------------------
