-------------------------------------------------------
          Amber 12 SANDER                              2012
          -------------------------------------------------------

  [-O]verwriting output

File Assignments:

 Here is the input file:

production run
 &cntrl
   ig=703422,
   irest=1, ntx=5,
   nstlim=50000, dt=0.002,
   ntc=2, ntf=1, tol=0.000001,
   ntb=2, nscm=50000,
   ntt=3, gamma_ln=2.0, temp0=300.0,
   ntp=1, taup=5.0,
   cut=10.0,
   ioutfm=1,
   ntpr=100, ntwx=100, ntwr=50000, iwrap=1,
   nmropt=1,
 /
 &wt
  type='DUMPFREQ', istep1=100,
 /
 &wt
  type='END',
 /
DISANG=run_-180_75.disang
DUMPAVE=run_-180_75.dat

--------------------------------------------------------------------------------
   1.  RESOURCE   USE:
--------------------------------------------------------------------------------

 getting new box info from bottom of inpcrd

 NATOM  =    4342 NTYPES =       9 NBONH =    4332 MBONA  =       9
 NTHETH =      25 MTHETA =      11 NPHIH =      43 MPHIA  =      24
 NHPARM =       0 NPARM  =       0 NNB   =    5859 NRES   =    1443
 NBONA  =       9 NTHETA =      11 NPHIA =      24 NUMBND =      13
 NUMANG =      21 NPTRA  =      20 NATYP =      10 NPHB   =       1
 IFBOX  =       1 NMXRS  =      10 IFCAP =       0 NEXTRA =       0
 NCOPY  =       0

     BOX TYPE: RECTILINEAR

--------------------------------------------------------------------------------
   2.  CONTROL  DATA  FOR  THE  RUN
--------------------------------------------------------------------------------

ACE

General flags:
     imin    =       0, nmropt  =       1

Nature and format of input:
     ntx     =       5, irest   =       1, ntrx    =       1

Nature and format of output:
     ntxo    =       1, ntpr    =     100, ntrx    =       1, ntwr    =   50000
     iwrap   =       1, ntwx    =     100, ntwv    =       0, ntwe    =       0
     ioutfm  =       1, ntwprt  =       0, idecomp =       0, rbornstat=      0

Potential function:
     ntf     =       1, ntb     =       2, igb     =       0, nsnb    =      25
     ipol    =       0, gbsa    =       0, iesp    =       0
     dielc   =   1.00000, cut     =  10.00000, intdiel =   1.00000

Frozen or restrained atoms:
     ibelly  =       0, ntr     =       0

Molecular dynamics:
     nstlim  =     50000, nscm    =     50000, nrespa  =         1
     t       =   0.00000, dt      =   0.00200, vlimit  =  20.00000

Langevin dynamics temperature regulation:
     ig      =  703422
     temp0   = 300.00000, tempi   =   0.00000, gamma_ln=   2.00000

Pressure regulation:
     ntp     =       1
     pres0   =   1.00000, comp    =  44.60000, taup    =   5.00000

SHAKE:
     ntc     =       2, jfastw  =       0
     tol     =   0.00000

NMR refinement options:
     iscale  =       0, noeskp  =       1, ipnlty  =       1, mxsub   =       1
     scalm   = 100.00000, pencut  =   0.10000, tausw   =   0.10000

Ewald parameters:
     verbose =       0, ew_type =       0, nbflag  =       1, use_pme =       1
     vdwmeth =       1, eedmeth =       1, netfrc  =       1
     Box X =   35.259   Box Y =   37.435   Box Z =   33.238
     Alpha =   90.000   Beta  =   90.000   Gamma =   90.000
     NFFT1 =   36       NFFT2 =   40       NFFT3 =   36
     Cutoff=   10.000   Tol   =0.100E-04
     Ewald Coefficient =  0.27511
     Interpolation order =    4

--------------------------------------------------------------------------------
   3.  ATOMIC COORDINATES AND VELOCITIES
--------------------------------------------------------------------------------

ACE
 begin time read from input coords =  1100.000 ps

           Begin reading energy term weight changes/NMR restraints
 WEIGHT CHANGES:
 DUMPFREQ    100      0    0.000000    0.000000      0      0
                         ** No weight changes given **

 RESTRAINTS:
 Requested file redirections:
  DISANG    = run_-180_75.disang
  DUMPAVE   = run_-180_75.dat
 Restraints will be read from file: run_-180_75.disang
Here are comments from the DISANG input file:

                       Number of restraints read =     2

                  Done reading weight changes/NMR restraints

 Number of triangulated 3-point waters found:     1440

     Sum of charges from parm topology file =  -0.00000000
     Forcing neutrality...

--------------------------------------------------------------------------------
   4.  RESULTS
 NSTEP =      100   TIME(PS) =    1100.200  TEMP(K) =   302.65  PRESS =  -171.5
 Etot   =    -11090.4367  EKtot   =      2614.4248  EPtot      =    -13704.8615
 BOND   =         1.3388  ANGLE   =        10.1002  DIHED      =        14.6101
 1-4 NB =         4.0153  1-4 EEL =        45.8244  VDWAALS    =      1973.0547
 EELEC  =    -15754.4603  EHBOND  =         0.0000  RESTRAINT  =         0.6553
 EAMBER (non-restraint)  =    -13705.5168
 EKCMT  =      1295.4540  VIRIAL  =      1457.8718  VOLUME     =     43849.5854
                                                    Density    =         0.9879
 Ewald error estimate:   0.1927E-03
 ------------------------------------------------------------------------------

      A V E R A G E S   O V E R   50000 S T E P S

 NSTEP =    50000   TIME(PS) =    1200.000  TEMP(K) =   300.12  PRESS =     5.5
 Etot   =    -11164.5372  EKtot   =      2592.5151  EPtot      =    -13757.0523
 BOND   =         3.3276  ANGLE   =         9.0378  DIHED      =        13.9972
 1-4 NB =         3.2625  1-4 EEL =        45.3383  VDWAALS    =      2042.6890
 EELEC  =    -15875.7269  EHBOND  =         0.0000  RESTRAINT  =         1.0221
 EAMBER (non-restraint)  =    -13758.0744
 EKCMT  =      1293.4361  VIRIAL  =      1288.1756  VOLUME     =     44047.0549
                                                    Density    =         0.9835
 Ewald error estimate:   0.1833E-03
 ------------------------------------------------------------------------------

      R M S  F L U C T U A T I O N S

 NSTEP =    50000   TIME(PS) =    1200.000  TEMP(K) =     4.60  PRESS =   288.2
 Etot   =        68.4146  EKtot   =        39.7671  EPtot      =        55.3059
 BOND   =         1.5370  ANGLE   =         2.4026  DIHED      =         1.2766
 1-4 NB =         0.7259  1-4 EEL =         2.0576  VDWAALS    =        58.2072
 EELEC  =        90.4264  EHBOND  =         0.0000  RESTRAINT  =         0.8827
 EAMBER (non-restraint)  =        54.4232
 EKCMT  =        28.3049  VIRIAL  =       272.9861  VOLUME     =        86.0655
                                                    Density    =         0.0019
 Ewald error estimate:   0.1356E-03
 ------------------------------------------------------------------------------
