-------------------------------------------------------
          Amber 12 SANDER                              2012
          -------------------------------------------------------

  [-O]verwriting output

File Assignments:

 Here is the input file:

production run
 &cntrl
   ig=346289,
   irest=1, ntx=5,
   nstlim=50000, dt=0.002,
   ntc=2, ntf=1, tol=0.000001,
   ntb=2, nscm=50000,
   ntt=3, gamma_ln=2.0, temp0=300.0,
   ntp=1, taup=5.0,
   cut=10.0,
   ioutfm=1,
   ntpr=100, ntwx=100, ntwr=50000, iwrap=1,
   nmropt=1,
 /
 &wt
  type='DUMPFREQ', istep1=100,
 /
 &wt
  type='END',
 /
DISANG=run_-30_0.disang
DUMPAVE=run_-30_0.dat

--------------------------------------------------------------------------------
   1.  RESOURCE   USE:
--------------------------------------------------------------------------------

 getting new box info from bottom of inpcrd

 NATOM  =    4342 NTYPES =       9 NBONH =    4332 MBONA  =       9
 NTHETH =      25 MTHETA =      11 NPHIH =      43 MPHIA  =      24
 NHPARM =       0 NPARM  =       0 NNB   =    5859 NRES   =    1443
 NBONA  =       9 NTHETA =      11 NPHIA =      24 NUMBND =      13
 NUMANG =      21 NPTRA  =      20 NATYP =      10 NPHB   =       1
 IFBOX  =       1 NMXRS  =      10 IFCAP =       0 NEXTRA =       0
 NCOPY  =       0

     BOX TYPE: RECTILINEAR

--------------------------------------------------------------------------------
   2.  CONTROL  DATA  FOR  THE  RUN
--------------------------------------------------------------------------------

ACE

General flags:
     imin    =       0, nmropt  =       1

Nature and format of input:
     ntx     =       5, irest   =       1, ntrx    =       1

Nature and format of output:
     ntxo    =       1, ntpr    =     100, ntrx    =       1, ntwr    =   50000
     iwrap   =       1, ntwx    =     100, ntwv    =       0, ntwe    =       0
     ioutfm  =       1, ntwprt  =       0, idecomp =       0, rbornstat=      0

Potential function:
     ntf     =       1, ntb     =       2, igb     =       0, nsnb    =      25
     ipol    =       0, gbsa    =       0, iesp    =       0
     dielc   =   1.00000, cut     =  10.00000, intdiel =   1.00000

Frozen or restrained atoms:
     ibelly  =       0, ntr     =       0

Molecular dynamics:
     nstlim  =     50000, nscm    =     50000, nrespa  =         1
     t       =   0.00000, dt      =   0.00200, vlimit  =  20.00000

Langevin dynamics temperature regulation:
     ig      =  346289
     temp0   = 300.00000, tempi   =   0.00000, gamma_ln=   2.00000

Pressure regulation:
     ntp     =       1
     pres0   =   1.00000, comp    =  44.60000, taup    =   5.00000

SHAKE:
     ntc     =       2, jfastw  =       0
     tol     =   0.00000

NMR refinement options:
     iscale  =       0, noeskp  =       1, ipnlty  =       1, mxsub   =       1
     scalm   = 100.00000, pencut  =   0.10000, tausw   =   0.10000

Ewald parameters:
     verbose =       0, ew_type =       0, nbflag  =       1, use_pme =       1
     vdwmeth =       1, eedmeth =       1, netfrc  =       1
     Box X =   35.310   Box Y =   37.490   Box Z =   33.286
     Alpha =   90.000   Beta  =   90.000   Gamma =   90.000
     NFFT1 =   36       NFFT2 =   40       NFFT3 =   36
     Cutoff=   10.000   Tol   =0.100E-04
     Ewald Coefficient =  0.27511
     Interpolation order =    4

--------------------------------------------------------------------------------
   3.  ATOMIC COORDINATES AND VELOCITIES
--------------------------------------------------------------------------------

ACE
 begin time read from input coords =  1100.000 ps

           Begin reading energy term weight changes/NMR restraints
 WEIGHT CHANGES:
 DUMPFREQ    100      0    0.000000    0.000000      0      0
                         ** No weight changes given **

 RESTRAINTS:
 Requested file redirections:
  DISANG    = run_-30_0.disang
  DUMPAVE   = run_-30_0.dat
 Restraints will be read from file: run_-30_0.disang
Here are comments from the DISANG input file:

                       Number of restraints read =     2

                  Done reading weight changes/NMR restraints

 Number of triangulated 3-point waters found:     1440

     Sum of charges from parm topology file =  -0.00000000
     Forcing neutrality...

--------------------------------------------------------------------------------
   4.  RESULTS
 NSTEP =      100   TIME(PS) =    1100.200  TEMP(K) =   302.29  PRESS =   -57.4
 Etot   =    -11225.0170  EKtot   =      2611.2940  EPtot      =    -13836.3111
 BOND   =         4.7319  ANGLE   =        16.4240  DIHED      =        11.1808
 1-4 NB =         2.1641  1-4 EEL =        39.9331  VDWAALS    =      2072.7016
 EELEC  =    -15983.7120  EHBOND  =         0.0000  RESTRAINT  =         0.2654
 EAMBER (non-restraint)  =    -13836.5765
 EKCMT  =      1312.4004  VIRIAL  =      1367.0520  VOLUME     =     44071.6874
                                                    Density    =         0.9829
 Ewald error estimate:   0.7576E-04
 ------------------------------------------------------------------------------

      A V E R A G E S   O V E R   50000 S T E P S

 NSTEP =    50000   TIME(PS) =    1200.000  TEMP(K) =   300.08  PRESS =     0.8
 Etot   =    -11163.4817  EKtot   =      2592.2264  EPtot      =    -13755.7081
 BOND   =         3.6356  ANGLE   =        13.8285  DIHED      =        11.5729
 1-4 NB =         2.6158  1-4 EEL =        42.4158  VDWAALS    =      2045.1828
 EELEC  =    -15876.5201  EHBOND  =         0.0000  RESTRAINT  =         1.5607
 EAMBER (non-restraint)  =    -13757.2688
 EKCMT  =      1292.1362  VIRIAL  =      1291.3603  VOLUME     =     44067.6238
                                                    Density    =         0.9830
 Ewald error estimate:   0.1798E-03
 ------------------------------------------------------------------------------

      R M S  F L U C T U A T I O N S

 NSTEP =    50000   TIME(PS) =    1200.000  TEMP(K) =     4.56  PRESS =   281.7
 Etot   =        67.3926  EKtot   =        39.3873  EPtot      =        54.2952
 BOND   =         1.6218  ANGLE   =         2.9027  DIHED      =         1.2121
 1-4 NB =         0.6095  1-4 EEL =         1.6942  VDWAALS    =        57.4279
 EELEC  =        90.0487  EHBOND  =         0.0000  RESTRAINT  =         1.2176
 EAMBER (non-restraint)  =        53.0776
 EKCMT  =        27.9581  VIRIAL  =       268.1687  VOLUME     =        58.2993
                                                    Density    =         0.0013
 Ewald error estimate:   0.1342E-03
 ------------------------------------------------------------------------------
