-------------------------------------------------------
          Amber 12 SANDER                              2012
          -------------------------------------------------------

  [-O]verwriting output

File Assignments:

 Here is the input file:

production run
 &cntrl
   ig=606538,
   irest=1, ntx=5,
   nstlim=50000, dt=0.002,
   ntc=2, ntf=1, tol=0.000001,
   ntb=2, nscm=50000,
   ntt=3, gamma_ln=2.0, temp0=300.0,
   ntp=1, taup=5.0,
   cut=10.0,
   ioutfm=1,
   ntpr=100, ntwx=100, ntwr=50000, iwrap=1,
   nmropt=1,
 /
 &wt
  type='DUMPFREQ', istep1=100,
 /
 &wt
  type='END',
 /
DISANG=run_-30_15.disang
DUMPAVE=run_-30_15.dat

--------------------------------------------------------------------------------
   1.  RESOURCE   USE:
--------------------------------------------------------------------------------

 getting new box info from bottom of inpcrd

 NATOM  =    4342 NTYPES =       9 NBONH =    4332 MBONA  =       9
 NTHETH =      25 MTHETA =      11 NPHIH =      43 MPHIA  =      24
 NHPARM =       0 NPARM  =       0 NNB   =    5859 NRES   =    1443
 NBONA  =       9 NTHETA =      11 NPHIA =      24 NUMBND =      13
 NUMANG =      21 NPTRA  =      20 NATYP =      10 NPHB   =       1
 IFBOX  =       1 NMXRS  =      10 IFCAP =       0 NEXTRA =       0
 NCOPY  =       0

     BOX TYPE: RECTILINEAR

--------------------------------------------------------------------------------
   2.  CONTROL  DATA  FOR  THE  RUN
--------------------------------------------------------------------------------

ACE

General flags:
     imin    =       0, nmropt  =       1

Nature and format of input:
     ntx     =       5, irest   =       1, ntrx    =       1

Nature and format of output:
     ntxo    =       1, ntpr    =     100, ntrx    =       1, ntwr    =   50000
     iwrap   =       1, ntwx    =     100, ntwv    =       0, ntwe    =       0
     ioutfm  =       1, ntwprt  =       0, idecomp =       0, rbornstat=      0

Potential function:
     ntf     =       1, ntb     =       2, igb     =       0, nsnb    =      25
     ipol    =       0, gbsa    =       0, iesp    =       0
     dielc   =   1.00000, cut     =  10.00000, intdiel =   1.00000

Frozen or restrained atoms:
     ibelly  =       0, ntr     =       0

Molecular dynamics:
     nstlim  =     50000, nscm    =     50000, nrespa  =         1
     t       =   0.00000, dt      =   0.00200, vlimit  =  20.00000

Langevin dynamics temperature regulation:
     ig      =  606538
     temp0   = 300.00000, tempi   =   0.00000, gamma_ln=   2.00000

Pressure regulation:
     ntp     =       1
     pres0   =   1.00000, comp    =  44.60000, taup    =   5.00000

SHAKE:
     ntc     =       2, jfastw  =       0
     tol     =   0.00000

NMR refinement options:
     iscale  =       0, noeskp  =       1, ipnlty  =       1, mxsub   =       1
     scalm   = 100.00000, pencut  =   0.10000, tausw   =   0.10000

Ewald parameters:
     verbose =       0, ew_type =       0, nbflag  =       1, use_pme =       1
     vdwmeth =       1, eedmeth =       1, netfrc  =       1
     Box X =   35.265   Box Y =   37.442   Box Z =   33.244
     Alpha =   90.000   Beta  =   90.000   Gamma =   90.000
     NFFT1 =   36       NFFT2 =   40       NFFT3 =   36
     Cutoff=   10.000   Tol   =0.100E-04
     Ewald Coefficient =  0.27511
     Interpolation order =    4

--------------------------------------------------------------------------------
   3.  ATOMIC COORDINATES AND VELOCITIES
--------------------------------------------------------------------------------

ACE
 begin time read from input coords =  1100.000 ps

           Begin reading energy term weight changes/NMR restraints
 WEIGHT CHANGES:
 DUMPFREQ    100      0    0.000000    0.000000      0      0
                         ** No weight changes given **

 RESTRAINTS:
 Requested file redirections:
  DISANG    = run_-30_15.disang
  DUMPAVE   = run_-30_15.dat
 Restraints will be read from file: run_-30_15.disang
Here are comments from the DISANG input file:

                       Number of restraints read =     2

                  Done reading weight changes/NMR restraints

 Number of triangulated 3-point waters found:     1440

     Sum of charges from parm topology file =  -0.00000000
     Forcing neutrality...

--------------------------------------------------------------------------------
   4.  RESULTS
 NSTEP =      100   TIME(PS) =    1100.200  TEMP(K) =   295.12  PRESS =  -160.4
 Etot   =    -11211.6293  EKtot   =      2549.3125  EPtot      =    -13760.9418
 BOND   =         2.5748  ANGLE   =        15.9681  DIHED      =        10.5146
 1-4 NB =         3.8651  1-4 EEL =        40.5627  VDWAALS    =      2004.4075
 EELEC  =    -15840.4659  EHBOND  =         0.0000  RESTRAINT  =         1.6313
 EAMBER (non-restraint)  =    -13762.5730
 EKCMT  =      1290.8127  VIRIAL  =      1442.7665  VOLUME     =     43872.6868
                                                    Density    =         0.9874
 Ewald error estimate:   0.3509E-03
 ------------------------------------------------------------------------------

      A V E R A G E S   O V E R   50000 S T E P S

 NSTEP =    50000   TIME(PS) =    1200.000  TEMP(K) =   299.96  PRESS =     6.4
 Etot   =    -11170.6536  EKtot   =      2591.1254  EPtot      =    -13761.7790
 BOND   =         3.7692  ANGLE   =        14.6849  DIHED      =        11.6836
 1-4 NB =         2.6775  1-4 EEL =        42.0133  VDWAALS    =      2044.5007
 EELEC  =    -15882.6585  EHBOND  =         0.0000  RESTRAINT  =         1.5503
 EAMBER (non-restraint)  =    -13763.3293
 EKCMT  =      1290.8840  VIRIAL  =      1284.8451  VOLUME     =     43996.1500
                                                    Density    =         0.9846
 Ewald error estimate:   0.1826E-03
 ------------------------------------------------------------------------------

      R M S  F L U C T U A T I O N S

 NSTEP =    50000   TIME(PS) =    1200.000  TEMP(K) =     4.60  PRESS =   284.0
 Etot   =        69.9782  EKtot   =        39.7032  EPtot      =        55.6634
 BOND   =         1.7075  ANGLE   =         2.9797  DIHED      =         1.3324
 1-4 NB =         0.6356  1-4 EEL =         1.6949  VDWAALS    =        57.0233
 EELEC  =        89.2597  EHBOND  =         0.0000  RESTRAINT  =         1.1834
 EAMBER (non-restraint)  =        54.4800
 EKCMT  =        27.9129  VIRIAL  =       268.8522  VOLUME     =       119.7285
                                                    Density    =         0.0027
 Ewald error estimate:   0.1377E-03
 ------------------------------------------------------------------------------
