-------------------------------------------------------
          Amber 12 SANDER                              2012
          -------------------------------------------------------

  [-O]verwriting output

File Assignments:

 Here is the input file:

production run
 &cntrl
   ig=234742,
   irest=1, ntx=5,
   nstlim=50000, dt=0.002,
   ntc=2, ntf=1, tol=0.000001,
   ntb=2, nscm=50000,
   ntt=3, gamma_ln=2.0, temp0=300.0,
   ntp=1, taup=5.0,
   cut=10.0,
   ioutfm=1,
   ntpr=100, ntwx=100, ntwr=50000, iwrap=1,
   nmropt=1,
 /
 &wt
  type='DUMPFREQ', istep1=100,
 /
 &wt
  type='END',
 /
DISANG=run_-90_75.disang
DUMPAVE=run_-90_75.dat

--------------------------------------------------------------------------------
   1.  RESOURCE   USE:
--------------------------------------------------------------------------------

 getting new box info from bottom of inpcrd

 NATOM  =    4342 NTYPES =       9 NBONH =    4332 MBONA  =       9
 NTHETH =      25 MTHETA =      11 NPHIH =      43 MPHIA  =      24
 NHPARM =       0 NPARM  =       0 NNB   =    5859 NRES   =    1443
 NBONA  =       9 NTHETA =      11 NPHIA =      24 NUMBND =      13
 NUMANG =      21 NPTRA  =      20 NATYP =      10 NPHB   =       1
 IFBOX  =       1 NMXRS  =      10 IFCAP =       0 NEXTRA =       0
 NCOPY  =       0

     BOX TYPE: RECTILINEAR

--------------------------------------------------------------------------------
   2.  CONTROL  DATA  FOR  THE  RUN
--------------------------------------------------------------------------------

ACE

General flags:
     imin    =       0, nmropt  =       1

Nature and format of input:
     ntx     =       5, irest   =       1, ntrx    =       1

Nature and format of output:
     ntxo    =       1, ntpr    =     100, ntrx    =       1, ntwr    =   50000
     iwrap   =       1, ntwx    =     100, ntwv    =       0, ntwe    =       0
     ioutfm  =       1, ntwprt  =       0, idecomp =       0, rbornstat=      0

Potential function:
     ntf     =       1, ntb     =       2, igb     =       0, nsnb    =      25
     ipol    =       0, gbsa    =       0, iesp    =       0
     dielc   =   1.00000, cut     =  10.00000, intdiel =   1.00000

Frozen or restrained atoms:
     ibelly  =       0, ntr     =       0

Molecular dynamics:
     nstlim  =     50000, nscm    =     50000, nrespa  =         1
     t       =   0.00000, dt      =   0.00200, vlimit  =  20.00000

Langevin dynamics temperature regulation:
     ig      =  234742
     temp0   = 300.00000, tempi   =   0.00000, gamma_ln=   2.00000

Pressure regulation:
     ntp     =       1
     pres0   =   1.00000, comp    =  44.60000, taup    =   5.00000

SHAKE:
     ntc     =       2, jfastw  =       0
     tol     =   0.00000

NMR refinement options:
     iscale  =       0, noeskp  =       1, ipnlty  =       1, mxsub   =       1
     scalm   = 100.00000, pencut  =   0.10000, tausw   =   0.10000

Ewald parameters:
     verbose =       0, ew_type =       0, nbflag  =       1, use_pme =       1
     vdwmeth =       1, eedmeth =       1, netfrc  =       1
     Box X =   35.327   Box Y =   37.507   Box Z =   33.302
     Alpha =   90.000   Beta  =   90.000   Gamma =   90.000
     NFFT1 =   36       NFFT2 =   40       NFFT3 =   36
     Cutoff=   10.000   Tol   =0.100E-04
     Ewald Coefficient =  0.27511
     Interpolation order =    4

--------------------------------------------------------------------------------
   3.  ATOMIC COORDINATES AND VELOCITIES
--------------------------------------------------------------------------------

ACE
 begin time read from input coords =  1100.000 ps

           Begin reading energy term weight changes/NMR restraints
 WEIGHT CHANGES:
 DUMPFREQ    100      0    0.000000    0.000000      0      0
                         ** No weight changes given **

 RESTRAINTS:
 Requested file redirections:
  DISANG    = run_-90_75.disang
  DUMPAVE   = run_-90_75.dat
 Restraints will be read from file: run_-90_75.disang
Here are comments from the DISANG input file:

                       Number of restraints read =     2

                  Done reading weight changes/NMR restraints

 Number of triangulated 3-point waters found:     1440

     Sum of charges from parm topology file =  -0.00000000
     Forcing neutrality...

--------------------------------------------------------------------------------
   4.  RESULTS
 NSTEP =      100   TIME(PS) =    1100.200  TEMP(K) =   293.72  PRESS =   127.4
 Etot   =    -11273.8500  EKtot   =      2537.2692  EPtot      =    -13811.1192
 BOND   =         2.3398  ANGLE   =         8.2180  DIHED      =        13.0805
 1-4 NB =         4.0643  1-4 EEL =        48.8803  VDWAALS    =      2104.5083
 EELEC  =    -15992.5733  EHBOND  =         0.0000  RESTRAINT  =         0.3629
 EAMBER (non-restraint)  =    -13811.4821
 EKCMT  =      1263.9375  VIRIAL  =      1142.5619  VOLUME     =     44112.7165
                                                    Density    =         0.9820
 Ewald error estimate:   0.2956E-03
 ------------------------------------------------------------------------------

      A V E R A G E S   O V E R   50000 S T E P S

 NSTEP =    50000   TIME(PS) =    1200.000  TEMP(K) =   299.89  PRESS =    -4.8
 Etot   =    -11179.7837  EKtot   =      2590.5688  EPtot      =    -13770.3525
 BOND   =         3.1901  ANGLE   =         9.2948  DIHED      =        13.7510
 1-4 NB =         3.1437  1-4 EEL =        46.2453  VDWAALS    =      2039.0583
 EELEC  =    -15885.6673  EHBOND  =         0.0000  RESTRAINT  =         0.6317
 EAMBER (non-restraint)  =    -13770.9842
 EKCMT  =      1291.7708  VIRIAL  =      1296.3328  VOLUME     =     43965.1796
                                                    Density    =         0.9853
 Ewald error estimate:   0.1798E-03
 ------------------------------------------------------------------------------

      R M S  F L U C T U A T I O N S

 NSTEP =    50000   TIME(PS) =    1200.000  TEMP(K) =     4.50  PRESS =   286.4
 Etot   =        62.5902  EKtot   =        38.8926  EPtot      =        51.0555
 BOND   =         1.4804  ANGLE   =         2.4933  DIHED      =         1.1155
 1-4 NB =         0.7166  1-4 EEL =         1.9560  VDWAALS    =        56.5156
 EELEC  =        84.8884  EHBOND  =         0.0000  RESTRAINT  =         0.6171
 EAMBER (non-restraint)  =        50.4384
 EKCMT  =        28.1349  VIRIAL  =       271.0540  VOLUME     =        69.7207
                                                    Density    =         0.0016
 Ewald error estimate:   0.1362E-03
 ------------------------------------------------------------------------------
