-------------------------------------------------------
          Amber 12 SANDER                              2012
          -------------------------------------------------------

  [-O]verwriting output

File Assignments:

 Here is the input file:

production run
 &cntrl
   ig=170868,
   irest=1, ntx=5,
   nstlim=50000, dt=0.002,
   ntc=2, ntf=1, tol=0.000001,
   ntb=2, nscm=50000,
   ntt=3, gamma_ln=2.0, temp0=300.0,
   ntp=1, taup=5.0,
   cut=10.0,
   ioutfm=1,
   ntpr=100, ntwx=100, ntwr=50000, iwrap=1,
   nmropt=1,
 /
 &wt
  type='DUMPFREQ', istep1=100,
 /
 &wt
  type='END',
 /
DISANG=run_-30_120.disang
DUMPAVE=run_-30_120.dat

--------------------------------------------------------------------------------
   1.  RESOURCE   USE:
--------------------------------------------------------------------------------

 getting new box info from bottom of inpcrd

 NATOM  =    4342 NTYPES =       9 NBONH =    4332 MBONA  =       9
 NTHETH =      25 MTHETA =      11 NPHIH =      43 MPHIA  =      24
 NHPARM =       0 NPARM  =       0 NNB   =    5859 NRES   =    1443
 NBONA  =       9 NTHETA =      11 NPHIA =      24 NUMBND =      13
 NUMANG =      21 NPTRA  =      20 NATYP =      10 NPHB   =       1
 IFBOX  =       1 NMXRS  =      10 IFCAP =       0 NEXTRA =       0
 NCOPY  =       0

     BOX TYPE: RECTILINEAR

--------------------------------------------------------------------------------
   2.  CONTROL  DATA  FOR  THE  RUN
--------------------------------------------------------------------------------

ACE

General flags:
     imin    =       0, nmropt  =       1

Nature and format of input:
     ntx     =       5, irest   =       1, ntrx    =       1

Nature and format of output:
     ntxo    =       1, ntpr    =     100, ntrx    =       1, ntwr    =   50000
     iwrap   =       1, ntwx    =     100, ntwv    =       0, ntwe    =       0
     ioutfm  =       1, ntwprt  =       0, idecomp =       0, rbornstat=      0

Potential function:
     ntf     =       1, ntb     =       2, igb     =       0, nsnb    =      25
     ipol    =       0, gbsa    =       0, iesp    =       0
     dielc   =   1.00000, cut     =  10.00000, intdiel =   1.00000

Frozen or restrained atoms:
     ibelly  =       0, ntr     =       0

Molecular dynamics:
     nstlim  =     50000, nscm    =     50000, nrespa  =         1
     t       =   0.00000, dt      =   0.00200, vlimit  =  20.00000

Langevin dynamics temperature regulation:
     ig      =  170868
     temp0   = 300.00000, tempi   =   0.00000, gamma_ln=   2.00000

Pressure regulation:
     ntp     =       1
     pres0   =   1.00000, comp    =  44.60000, taup    =   5.00000

SHAKE:
     ntc     =       2, jfastw  =       0
     tol     =   0.00000

NMR refinement options:
     iscale  =       0, noeskp  =       1, ipnlty  =       1, mxsub   =       1
     scalm   = 100.00000, pencut  =   0.10000, tausw   =   0.10000

Ewald parameters:
     verbose =       0, ew_type =       0, nbflag  =       1, use_pme =       1
     vdwmeth =       1, eedmeth =       1, netfrc  =       1
     Box X =   35.306   Box Y =   37.485   Box Z =   33.282
     Alpha =   90.000   Beta  =   90.000   Gamma =   90.000
     NFFT1 =   36       NFFT2 =   40       NFFT3 =   36
     Cutoff=   10.000   Tol   =0.100E-04
     Ewald Coefficient =  0.27511
     Interpolation order =    4

--------------------------------------------------------------------------------
   3.  ATOMIC COORDINATES AND VELOCITIES
--------------------------------------------------------------------------------

ACE
 begin time read from input coords =  1100.000 ps

           Begin reading energy term weight changes/NMR restraints
 WEIGHT CHANGES:
 DUMPFREQ    100      0    0.000000    0.000000      0      0
                         ** No weight changes given **

 RESTRAINTS:
 Requested file redirections:
  DISANG    = run_-30_120.disang
  DUMPAVE   = run_-30_120.dat
 Restraints will be read from file: run_-30_120.disang
Here are comments from the DISANG input file:

                       Number of restraints read =     2

                  Done reading weight changes/NMR restraints

 Number of triangulated 3-point waters found:     1440

     Sum of charges from parm topology file =  -0.00000000
     Forcing neutrality...

--------------------------------------------------------------------------------
   4.  RESULTS
 NSTEP =      100   TIME(PS) =    1100.200  TEMP(K) =   301.50  PRESS =   710.1
 Etot   =    -11184.8471  EKtot   =      2604.4923  EPtot      =    -13789.3394
 BOND   =         2.2703  ANGLE   =        10.6006  DIHED      =        13.4889
 1-4 NB =         2.7017  1-4 EEL =        44.7472  VDWAALS    =      2189.1137
 EELEC  =    -16053.0288  EHBOND  =         0.0000  RESTRAINT  =         0.7670
 EAMBER (non-restraint)  =    -13790.1064
 EKCMT  =      1298.5146  VIRIAL  =       622.8767  VOLUME     =     44068.4075
                                                    Density    =         0.9830
 Ewald error estimate:   0.7195E-04
 ------------------------------------------------------------------------------

      A V E R A G E S   O V E R   50000 S T E P S

 NSTEP =    50000   TIME(PS) =    1200.000  TEMP(K) =   299.88  PRESS =    -0.3
 Etot   =    -11185.4027  EKtot   =      2590.4797  EPtot      =    -13775.8824
 BOND   =         3.3161  ANGLE   =         9.9571  DIHED      =        13.3029
 1-4 NB =         2.7997  1-4 EEL =        46.6200  VDWAALS    =      2044.8635
 EELEC  =    -15897.5539  EHBOND  =         0.0000  RESTRAINT  =         0.8122
 EAMBER (non-restraint)  =    -13776.6946
 EKCMT  =      1291.9822  VIRIAL  =      1292.2794  VOLUME     =     43988.3397
                                                    Density    =         0.9848
 Ewald error estimate:   0.1813E-03
 ------------------------------------------------------------------------------

      R M S  F L U C T U A T I O N S

 NSTEP =    50000   TIME(PS) =    1200.000  TEMP(K) =     4.49  PRESS =   280.0
 Etot   =        68.9544  EKtot   =        38.7761  EPtot      =        56.4459
 BOND   =         1.5424  ANGLE   =         2.4858  DIHED      =         1.2197
 1-4 NB =         0.6541  1-4 EEL =         1.9356  VDWAALS    =        55.7069
 EELEC  =        88.9033  EHBOND  =         0.0000  RESTRAINT  =         0.7728
 EAMBER (non-restraint)  =        55.6730
 EKCMT  =        27.8745  VIRIAL  =       264.3683  VOLUME     =        91.6005
                                                    Density    =         0.0020
 Ewald error estimate:   0.1387E-03
 ------------------------------------------------------------------------------
