-------------------------------------------------------
          Amber 12 SANDER                              2012
          -------------------------------------------------------

  [-O]verwriting output

File Assignments:

 Here is the input file:

production run
 &cntrl
   ig=581702,
   irest=1, ntx=5,
   nstlim=50000, dt=0.002,
   ntc=2, ntf=1, tol=0.000001,
   ntb=2, nscm=50000,
   ntt=3, gamma_ln=2.0, temp0=300.0,
   ntp=1, taup=5.0,
   cut=10.0,
   ioutfm=1,
   ntpr=100, ntwx=100, ntwr=50000, iwrap=1,
   nmropt=1,
 /
 &wt
  type='DUMPFREQ', istep1=100,
 /
 &wt
  type='END',
 /
DISANG=run_-60_150.disang
DUMPAVE=run_-60_150.dat

--------------------------------------------------------------------------------
   1.  RESOURCE   USE:
--------------------------------------------------------------------------------

 getting new box info from bottom of inpcrd

 NATOM  =    4342 NTYPES =       9 NBONH =    4332 MBONA  =       9
 NTHETH =      25 MTHETA =      11 NPHIH =      43 MPHIA  =      24
 NHPARM =       0 NPARM  =       0 NNB   =    5859 NRES   =    1443
 NBONA  =       9 NTHETA =      11 NPHIA =      24 NUMBND =      13
 NUMANG =      21 NPTRA  =      20 NATYP =      10 NPHB   =       1
 IFBOX  =       1 NMXRS  =      10 IFCAP =       0 NEXTRA =       0
 NCOPY  =       0

     BOX TYPE: RECTILINEAR

--------------------------------------------------------------------------------
   2.  CONTROL  DATA  FOR  THE  RUN
--------------------------------------------------------------------------------

ACE

General flags:
     imin    =       0, nmropt  =       1

Nature and format of input:
     ntx     =       5, irest   =       1, ntrx    =       1

Nature and format of output:
     ntxo    =       1, ntpr    =     100, ntrx    =       1, ntwr    =   50000
     iwrap   =       1, ntwx    =     100, ntwv    =       0, ntwe    =       0
     ioutfm  =       1, ntwprt  =       0, idecomp =       0, rbornstat=      0

Potential function:
     ntf     =       1, ntb     =       2, igb     =       0, nsnb    =      25
     ipol    =       0, gbsa    =       0, iesp    =       0
     dielc   =   1.00000, cut     =  10.00000, intdiel =   1.00000

Frozen or restrained atoms:
     ibelly  =       0, ntr     =       0

Molecular dynamics:
     nstlim  =     50000, nscm    =     50000, nrespa  =         1
     t       =   0.00000, dt      =   0.00200, vlimit  =  20.00000

Langevin dynamics temperature regulation:
     ig      =  581702
     temp0   = 300.00000, tempi   =   0.00000, gamma_ln=   2.00000

Pressure regulation:
     ntp     =       1
     pres0   =   1.00000, comp    =  44.60000, taup    =   5.00000

SHAKE:
     ntc     =       2, jfastw  =       0
     tol     =   0.00000

NMR refinement options:
     iscale  =       0, noeskp  =       1, ipnlty  =       1, mxsub   =       1
     scalm   = 100.00000, pencut  =   0.10000, tausw   =   0.10000

Ewald parameters:
     verbose =       0, ew_type =       0, nbflag  =       1, use_pme =       1
     vdwmeth =       1, eedmeth =       1, netfrc  =       1
     Box X =   35.300   Box Y =   37.479   Box Z =   33.277
     Alpha =   90.000   Beta  =   90.000   Gamma =   90.000
     NFFT1 =   36       NFFT2 =   40       NFFT3 =   36
     Cutoff=   10.000   Tol   =0.100E-04
     Ewald Coefficient =  0.27511
     Interpolation order =    4

--------------------------------------------------------------------------------
   3.  ATOMIC COORDINATES AND VELOCITIES
--------------------------------------------------------------------------------

ACE
 begin time read from input coords =  1100.000 ps

           Begin reading energy term weight changes/NMR restraints
 WEIGHT CHANGES:
 DUMPFREQ    100      0    0.000000    0.000000      0      0
                         ** No weight changes given **

 RESTRAINTS:
 Requested file redirections:
  DISANG    = run_-60_150.disang
  DUMPAVE   = run_-60_150.dat
 Restraints will be read from file: run_-60_150.disang
Here are comments from the DISANG input file:

                       Number of restraints read =     2

                  Done reading weight changes/NMR restraints

 Number of triangulated 3-point waters found:     1440

     Sum of charges from parm topology file =  -0.00000000
     Forcing neutrality...

--------------------------------------------------------------------------------
   4.  RESULTS
 NSTEP =      100   TIME(PS) =    1100.200  TEMP(K) =   297.87  PRESS =   -73.9
 Etot   =    -11132.6212  EKtot   =      2573.1193  EPtot      =    -13705.7405
 BOND   =         2.5334  ANGLE   =         9.2783  DIHED      =        11.9346
 1-4 NB =         3.2504  1-4 EEL =        48.1279  VDWAALS    =      2014.6874
 EELEC  =    -15796.6086  EHBOND  =         0.0000  RESTRAINT  =         1.0560
 EAMBER (non-restraint)  =    -13706.7965
 EKCMT  =      1259.6182  VIRIAL  =      1329.8839  VOLUME     =     44017.8552
                                                    Density    =         0.9841
 Ewald error estimate:   0.2885E-03
 ------------------------------------------------------------------------------

      A V E R A G E S   O V E R   50000 S T E P S

 NSTEP =    50000   TIME(PS) =    1200.000  TEMP(K) =   299.98  PRESS =    -1.4
 Etot   =    -11175.9784  EKtot   =      2591.3081  EPtot      =    -13767.2865
 BOND   =         3.1740  ANGLE   =         8.9359  DIHED      =        11.3819
 1-4 NB =         3.1323  1-4 EEL =        47.5614  VDWAALS    =      2040.8385
 EELEC  =    -15882.8495  EHBOND  =         0.0000  RESTRAINT  =         0.5391
 EAMBER (non-restraint)  =    -13767.8256
 EKCMT  =      1293.7681  VIRIAL  =      1295.0946  VOLUME     =     44030.8804
                                                    Density    =         0.9838
 Ewald error estimate:   0.1825E-03
 ------------------------------------------------------------------------------

      R M S  F L U C T U A T I O N S

 NSTEP =    50000   TIME(PS) =    1200.000  TEMP(K) =     4.42  PRESS =   277.6
 Etot   =        67.2961  EKtot   =        38.1413  EPtot      =        56.4790
 BOND   =         1.4762  ANGLE   =         2.3548  DIHED      =         1.1171
 1-4 NB =         0.7318  1-4 EEL =         2.0691  VDWAALS    =        56.7319
 EELEC  =        91.8197  EHBOND  =         0.0000  RESTRAINT  =         0.5309
 EAMBER (non-restraint)  =        55.9481
 EKCMT  =        27.0736  VIRIAL  =       262.0091  VOLUME     =        73.2135
                                                    Density    =         0.0016
 Ewald error estimate:   0.1378E-03
 ------------------------------------------------------------------------------
