-------------------------------------------------------
          Amber 12 SANDER                              2012
          -------------------------------------------------------

  [-O]verwriting output

File Assignments:

 Here is the input file:

production run
 &cntrl
   ig=13028,
   irest=1, ntx=5,
   nstlim=50000, dt=0.002,
   ntc=2, ntf=1, tol=0.000001,
   ntb=2, nscm=50000,
   ntt=3, gamma_ln=2.0, temp0=300.0,
   ntp=1, taup=5.0,
   cut=10.0,
   ioutfm=1,
   ntpr=100, ntwx=100, ntwr=50000, iwrap=1,
   nmropt=1,
 /
 &wt
  type='DUMPFREQ', istep1=100,
 /
 &wt
  type='END',
 /
DISANG=run_-60_30.disang
DUMPAVE=run_-60_30.dat

--------------------------------------------------------------------------------
   1.  RESOURCE   USE:
--------------------------------------------------------------------------------

 getting new box info from bottom of inpcrd

 NATOM  =    4342 NTYPES =       9 NBONH =    4332 MBONA  =       9
 NTHETH =      25 MTHETA =      11 NPHIH =      43 MPHIA  =      24
 NHPARM =       0 NPARM  =       0 NNB   =    5859 NRES   =    1443
 NBONA  =       9 NTHETA =      11 NPHIA =      24 NUMBND =      13
 NUMANG =      21 NPTRA  =      20 NATYP =      10 NPHB   =       1
 IFBOX  =       1 NMXRS  =      10 IFCAP =       0 NEXTRA =       0
 NCOPY  =       0

     BOX TYPE: RECTILINEAR

--------------------------------------------------------------------------------
   2.  CONTROL  DATA  FOR  THE  RUN
--------------------------------------------------------------------------------

ACE

General flags:
     imin    =       0, nmropt  =       1

Nature and format of input:
     ntx     =       5, irest   =       1, ntrx    =       1

Nature and format of output:
     ntxo    =       1, ntpr    =     100, ntrx    =       1, ntwr    =   50000
     iwrap   =       1, ntwx    =     100, ntwv    =       0, ntwe    =       0
     ioutfm  =       1, ntwprt  =       0, idecomp =       0, rbornstat=      0

Potential function:
     ntf     =       1, ntb     =       2, igb     =       0, nsnb    =      25
     ipol    =       0, gbsa    =       0, iesp    =       0
     dielc   =   1.00000, cut     =  10.00000, intdiel =   1.00000

Frozen or restrained atoms:
     ibelly  =       0, ntr     =       0

Molecular dynamics:
     nstlim  =     50000, nscm    =     50000, nrespa  =         1
     t       =   0.00000, dt      =   0.00200, vlimit  =  20.00000

Langevin dynamics temperature regulation:
     ig      =   13028
     temp0   = 300.00000, tempi   =   0.00000, gamma_ln=   2.00000

Pressure regulation:
     ntp     =       1
     pres0   =   1.00000, comp    =  44.60000, taup    =   5.00000

SHAKE:
     ntc     =       2, jfastw  =       0
     tol     =   0.00000

NMR refinement options:
     iscale  =       0, noeskp  =       1, ipnlty  =       1, mxsub   =       1
     scalm   = 100.00000, pencut  =   0.10000, tausw   =   0.10000

Ewald parameters:
     verbose =       0, ew_type =       0, nbflag  =       1, use_pme =       1
     vdwmeth =       1, eedmeth =       1, netfrc  =       1
     Box X =   35.285   Box Y =   37.463   Box Z =   33.263
     Alpha =   90.000   Beta  =   90.000   Gamma =   90.000
     NFFT1 =   36       NFFT2 =   40       NFFT3 =   36
     Cutoff=   10.000   Tol   =0.100E-04
     Ewald Coefficient =  0.27511
     Interpolation order =    4

--------------------------------------------------------------------------------
   3.  ATOMIC COORDINATES AND VELOCITIES
--------------------------------------------------------------------------------

ACE
 begin time read from input coords =  1100.000 ps

           Begin reading energy term weight changes/NMR restraints
 WEIGHT CHANGES:
 DUMPFREQ    100      0    0.000000    0.000000      0      0
                         ** No weight changes given **

 RESTRAINTS:
 Requested file redirections:
  DISANG    = run_-60_30.disang
  DUMPAVE   = run_-60_30.dat
 Restraints will be read from file: run_-60_30.disang
Here are comments from the DISANG input file:

                       Number of restraints read =     2

                  Done reading weight changes/NMR restraints

 Number of triangulated 3-point waters found:     1440

     Sum of charges from parm topology file =  -0.00000000
     Forcing neutrality...

--------------------------------------------------------------------------------
   4.  RESULTS
 NSTEP =      100   TIME(PS) =    1100.200  TEMP(K) =   300.02  PRESS =  -203.5
 Etot   =    -11127.2220  EKtot   =      2591.6816  EPtot      =    -13718.9035
 BOND   =         5.0421  ANGLE   =        13.1585  DIHED      =        10.9488
 1-4 NB =         2.2251  1-4 EEL =        43.2698  VDWAALS    =      1973.6173
 EELEC  =    -15767.4043  EHBOND  =         0.0000  RESTRAINT  =         0.2392
 EAMBER (non-restraint)  =    -13719.1427
 EKCMT  =      1299.1070  VIRIAL  =      1492.1875  VOLUME     =     43946.7656
                                                    Density    =         0.9857
 Ewald error estimate:   0.7293E-05
 ------------------------------------------------------------------------------

      A V E R A G E S   O V E R   50000 S T E P S

 NSTEP =    50000   TIME(PS) =    1200.000  TEMP(K) =   300.70  PRESS =     1.5
 Etot   =    -11162.6034  EKtot   =      2597.5006  EPtot      =    -13760.1040
 BOND   =         3.5250  ANGLE   =        11.0653  DIHED      =        11.2034
 1-4 NB =         3.1482  1-4 EEL =        44.1840  VDWAALS    =      2038.8678
 EELEC  =    -15872.9082  EHBOND  =         0.0000  RESTRAINT  =         0.8108
 EAMBER (non-restraint)  =    -13760.9147
 EKCMT  =      1296.2108  VIRIAL  =      1294.8054  VOLUME     =     43985.8080
                                                    Density    =         0.9849
 Ewald error estimate:   0.1804E-03
 ------------------------------------------------------------------------------

      R M S  F L U C T U A T I O N S

 NSTEP =    50000   TIME(PS) =    1200.000  TEMP(K) =     4.53  PRESS =   285.5
 Etot   =        60.1503  EKtot   =        39.1720  EPtot      =        49.1776
 BOND   =         1.5973  ANGLE   =         2.6801  DIHED      =         1.1138
 1-4 NB =         0.6821  1-4 EEL =         1.7177  VDWAALS    =        54.8899
 EELEC  =        79.0178  EHBOND  =         0.0000  RESTRAINT  =         0.7606
 EAMBER (non-restraint)  =        48.4170
 EKCMT  =        28.0651  VIRIAL  =       269.2099  VOLUME     =        63.8125
                                                    Density    =         0.0014
 Ewald error estimate:   0.1362E-03
 ------------------------------------------------------------------------------
