-------------------------------------------------------
          Amber 12 SANDER                              2012
          -------------------------------------------------------

  [-O]verwriting output

File Assignments:

 Here is the input file:

production run
 &cntrl
   ig=792663,
   irest=1, ntx=5,
   nstlim=50000, dt=0.002,
   ntc=2, ntf=1, tol=0.000001,
   ntb=2, nscm=50000,
   ntt=3, gamma_ln=2.0, temp0=300.0,
   ntp=1, taup=5.0,
   cut=10.0,
   ioutfm=1,
   ntpr=100, ntwx=100, ntwr=50000, iwrap=1,
   nmropt=1,
 /
 &wt
  type='DUMPFREQ', istep1=100,
 /
 &wt
  type='END',
 /
DISANG=run_-45_60.disang
DUMPAVE=run_-45_60.dat

--------------------------------------------------------------------------------
   1.  RESOURCE   USE:
--------------------------------------------------------------------------------

 getting new box info from bottom of inpcrd

 NATOM  =    4342 NTYPES =       9 NBONH =    4332 MBONA  =       9
 NTHETH =      25 MTHETA =      11 NPHIH =      43 MPHIA  =      24
 NHPARM =       0 NPARM  =       0 NNB   =    5859 NRES   =    1443
 NBONA  =       9 NTHETA =      11 NPHIA =      24 NUMBND =      13
 NUMANG =      21 NPTRA  =      20 NATYP =      10 NPHB   =       1
 IFBOX  =       1 NMXRS  =      10 IFCAP =       0 NEXTRA =       0
 NCOPY  =       0

     BOX TYPE: RECTILINEAR

--------------------------------------------------------------------------------
   2.  CONTROL  DATA  FOR  THE  RUN
--------------------------------------------------------------------------------

ACE

General flags:
     imin    =       0, nmropt  =       1

Nature and format of input:
     ntx     =       5, irest   =       1, ntrx    =       1

Nature and format of output:
     ntxo    =       1, ntpr    =     100, ntrx    =       1, ntwr    =   50000
     iwrap   =       1, ntwx    =     100, ntwv    =       0, ntwe    =       0
     ioutfm  =       1, ntwprt  =       0, idecomp =       0, rbornstat=      0

Potential function:
     ntf     =       1, ntb     =       2, igb     =       0, nsnb    =      25
     ipol    =       0, gbsa    =       0, iesp    =       0
     dielc   =   1.00000, cut     =  10.00000, intdiel =   1.00000

Frozen or restrained atoms:
     ibelly  =       0, ntr     =       0

Molecular dynamics:
     nstlim  =     50000, nscm    =     50000, nrespa  =         1
     t       =   0.00000, dt      =   0.00200, vlimit  =  20.00000

Langevin dynamics temperature regulation:
     ig      =  792663
     temp0   = 300.00000, tempi   =   0.00000, gamma_ln=   2.00000

Pressure regulation:
     ntp     =       1
     pres0   =   1.00000, comp    =  44.60000, taup    =   5.00000

SHAKE:
     ntc     =       2, jfastw  =       0
     tol     =   0.00000

NMR refinement options:
     iscale  =       0, noeskp  =       1, ipnlty  =       1, mxsub   =       1
     scalm   = 100.00000, pencut  =   0.10000, tausw   =   0.10000

Ewald parameters:
     verbose =       0, ew_type =       0, nbflag  =       1, use_pme =       1
     vdwmeth =       1, eedmeth =       1, netfrc  =       1
     Box X =   35.257   Box Y =   37.433   Box Z =   33.236
     Alpha =   90.000   Beta  =   90.000   Gamma =   90.000
     NFFT1 =   36       NFFT2 =   40       NFFT3 =   36
     Cutoff=   10.000   Tol   =0.100E-04
     Ewald Coefficient =  0.27511
     Interpolation order =    4

--------------------------------------------------------------------------------
   3.  ATOMIC COORDINATES AND VELOCITIES
--------------------------------------------------------------------------------

ACE
 begin time read from input coords =  1100.000 ps

           Begin reading energy term weight changes/NMR restraints
 WEIGHT CHANGES:
 DUMPFREQ    100      0    0.000000    0.000000      0      0
                         ** No weight changes given **

 RESTRAINTS:
 Requested file redirections:
  DISANG    = run_-45_60.disang
  DUMPAVE   = run_-45_60.dat
 Restraints will be read from file: run_-45_60.disang
Here are comments from the DISANG input file:

                       Number of restraints read =     2

                  Done reading weight changes/NMR restraints

 Number of triangulated 3-point waters found:     1440

     Sum of charges from parm topology file =  -0.00000000
     Forcing neutrality...

--------------------------------------------------------------------------------
   4.  RESULTS
 NSTEP =      100   TIME(PS) =    1100.200  TEMP(K) =   300.87  PRESS =   -20.1
 Etot   =    -11171.2637  EKtot   =      2598.9723  EPtot      =    -13770.2360
 BOND   =         6.3880  ANGLE   =         9.9879  DIHED      =        13.2633
 1-4 NB =         2.4440  1-4 EEL =        41.9079  VDWAALS    =      2026.1542
 EELEC  =    -15871.8924  EHBOND  =         0.0000  RESTRAINT  =         1.5112
 EAMBER (non-restraint)  =    -13771.7472
 EKCMT  =      1308.9775  VIRIAL  =      1328.0512  VOLUME     =     43864.7700
                                                    Density    =         0.9876
 Ewald error estimate:   0.8009E-04
 ------------------------------------------------------------------------------

      A V E R A G E S   O V E R   50000 S T E P S

 NSTEP =    50000   TIME(PS) =    1200.000  TEMP(K) =   299.39  PRESS =     2.6
 Etot   =    -11200.0757  EKtot   =      2586.1928  EPtot      =    -13786.2685
 BOND   =         3.6099  ANGLE   =        11.7930  DIHED      =        13.3855
 1-4 NB =         2.7589  1-4 EEL =        44.0508  VDWAALS    =      2052.6315
 EELEC  =    -15915.5881  EHBOND  =         0.0000  RESTRAINT  =         1.0900
 EAMBER (non-restraint)  =    -13787.3585
 EKCMT  =      1290.2005  VIRIAL  =      1287.6932  VOLUME     =     43990.3577
                                                    Density    =         0.9848
 Ewald error estimate:   0.1794E-03
 ------------------------------------------------------------------------------

      R M S  F L U C T U A T I O N S

 NSTEP =    50000   TIME(PS) =    1200.000  TEMP(K) =     4.56  PRESS =   284.1
 Etot   =        67.3127  EKtot   =        39.4298  EPtot      =        54.5543
 BOND   =         1.6130  ANGLE   =         2.7094  DIHED      =         1.2640
 1-4 NB =         0.6646  1-4 EEL =         1.7821  VDWAALS    =        56.1140
 EELEC  =        87.1546  EHBOND  =         0.0000  RESTRAINT  =         0.9553
 EAMBER (non-restraint)  =        53.5989
 EKCMT  =        28.1423  VIRIAL  =       268.0577  VOLUME     =        74.1576
                                                    Density    =         0.0017
 Ewald error estimate:   0.1363E-03
 ------------------------------------------------------------------------------
