-------------------------------------------------------
          Amber 12 SANDER                              2012
          -------------------------------------------------------

  [-O]verwriting output

File Assignments:

 Here is the input file:

production run
 &cntrl
   ig=543915,
   irest=1, ntx=5,
   nstlim=50000, dt=0.002,
   ntc=2, ntf=1, tol=0.000001,
   ntb=2, nscm=50000,
   ntt=3, gamma_ln=2.0, temp0=300.0,
   ntp=1, taup=5.0,
   cut=10.0,
   ioutfm=1,
   ntpr=100, ntwx=100, ntwr=50000, iwrap=1,
   nmropt=1,
 /
 &wt
  type='DUMPFREQ', istep1=100,
 /
 &wt
  type='END',
 /
DISANG=run_-60_120.disang
DUMPAVE=run_-60_120.dat

--------------------------------------------------------------------------------
   1.  RESOURCE   USE:
--------------------------------------------------------------------------------

 getting new box info from bottom of inpcrd

 NATOM  =    4342 NTYPES =       9 NBONH =    4332 MBONA  =       9
 NTHETH =      25 MTHETA =      11 NPHIH =      43 MPHIA  =      24
 NHPARM =       0 NPARM  =       0 NNB   =    5859 NRES   =    1443
 NBONA  =       9 NTHETA =      11 NPHIA =      24 NUMBND =      13
 NUMANG =      21 NPTRA  =      20 NATYP =      10 NPHB   =       1
 IFBOX  =       1 NMXRS  =      10 IFCAP =       0 NEXTRA =       0
 NCOPY  =       0

     BOX TYPE: RECTILINEAR

--------------------------------------------------------------------------------
   2.  CONTROL  DATA  FOR  THE  RUN
--------------------------------------------------------------------------------

ACE

General flags:
     imin    =       0, nmropt  =       1

Nature and format of input:
     ntx     =       5, irest   =       1, ntrx    =       1

Nature and format of output:
     ntxo    =       1, ntpr    =     100, ntrx    =       1, ntwr    =   50000
     iwrap   =       1, ntwx    =     100, ntwv    =       0, ntwe    =       0
     ioutfm  =       1, ntwprt  =       0, idecomp =       0, rbornstat=      0

Potential function:
     ntf     =       1, ntb     =       2, igb     =       0, nsnb    =      25
     ipol    =       0, gbsa    =       0, iesp    =       0
     dielc   =   1.00000, cut     =  10.00000, intdiel =   1.00000

Frozen or restrained atoms:
     ibelly  =       0, ntr     =       0

Molecular dynamics:
     nstlim  =     50000, nscm    =     50000, nrespa  =         1
     t       =   0.00000, dt      =   0.00200, vlimit  =  20.00000

Langevin dynamics temperature regulation:
     ig      =  543915
     temp0   = 300.00000, tempi   =   0.00000, gamma_ln=   2.00000

Pressure regulation:
     ntp     =       1
     pres0   =   1.00000, comp    =  44.60000, taup    =   5.00000

SHAKE:
     ntc     =       2, jfastw  =       0
     tol     =   0.00000

NMR refinement options:
     iscale  =       0, noeskp  =       1, ipnlty  =       1, mxsub   =       1
     scalm   = 100.00000, pencut  =   0.10000, tausw   =   0.10000

Ewald parameters:
     verbose =       0, ew_type =       0, nbflag  =       1, use_pme =       1
     vdwmeth =       1, eedmeth =       1, netfrc  =       1
     Box X =   35.256   Box Y =   37.432   Box Z =   33.236
     Alpha =   90.000   Beta  =   90.000   Gamma =   90.000
     NFFT1 =   36       NFFT2 =   40       NFFT3 =   36
     Cutoff=   10.000   Tol   =0.100E-04
     Ewald Coefficient =  0.27511
     Interpolation order =    4

--------------------------------------------------------------------------------
   3.  ATOMIC COORDINATES AND VELOCITIES
--------------------------------------------------------------------------------

ACE
 begin time read from input coords =  1100.000 ps

           Begin reading energy term weight changes/NMR restraints
 WEIGHT CHANGES:
 DUMPFREQ    100      0    0.000000    0.000000      0      0
                         ** No weight changes given **

 RESTRAINTS:
 Requested file redirections:
  DISANG    = run_-60_120.disang
  DUMPAVE   = run_-60_120.dat
 Restraints will be read from file: run_-60_120.disang
Here are comments from the DISANG input file:

                       Number of restraints read =     2

                  Done reading weight changes/NMR restraints

 Number of triangulated 3-point waters found:     1440

     Sum of charges from parm topology file =  -0.00000000
     Forcing neutrality...

--------------------------------------------------------------------------------
   4.  RESULTS
 NSTEP =      100   TIME(PS) =    1100.200  TEMP(K) =   307.21  PRESS =   -39.1
 Etot   =    -11113.6024  EKtot   =      2653.7998  EPtot      =    -13767.4022
 BOND   =         2.8859  ANGLE   =         7.1903  DIHED      =        13.4671
 1-4 NB =         2.7904  1-4 EEL =        44.9665  VDWAALS    =      2025.1526
 EELEC  =    -15864.8916  EHBOND  =         0.0000  RESTRAINT  =         1.0366
 EAMBER (non-restraint)  =    -13768.4388
 EKCMT  =      1331.6700  VIRIAL  =      1368.6710  VOLUME     =     43880.1791
                                                    Density    =         0.9872
 Ewald error estimate:   0.1082E-03
 ------------------------------------------------------------------------------

      A V E R A G E S   O V E R   50000 S T E P S

 NSTEP =    50000   TIME(PS) =    1200.000  TEMP(K) =   299.77  PRESS =     3.8
 Etot   =    -11189.0872  EKtot   =      2589.4687  EPtot      =    -13778.5559
 BOND   =         3.2878  ANGLE   =         9.2519  DIHED      =        12.5152
 1-4 NB =         2.9614  1-4 EEL =        47.4589  VDWAALS    =      2046.1461
 EELEC  =    -15900.7851  EHBOND  =         0.0000  RESTRAINT  =         0.6078
 EAMBER (non-restraint)  =    -13779.1637
 EKCMT  =      1292.0728  VIRIAL  =      1288.4951  VOLUME     =     44009.1939
                                                    Density    =         0.9843
 Ewald error estimate:   0.1808E-03
 ------------------------------------------------------------------------------

      R M S  F L U C T U A T I O N S

 NSTEP =    50000   TIME(PS) =    1200.000  TEMP(K) =     4.66  PRESS =   290.6
 Etot   =        67.6173  EKtot   =        40.2186  EPtot      =        53.4426
 BOND   =         1.5058  ANGLE   =         2.4259  DIHED      =         1.1200
 1-4 NB =         0.6920  1-4 EEL =         2.0275  VDWAALS    =        57.0631
 EELEC  =        86.2807  EHBOND  =         0.0000  RESTRAINT  =         0.6011
 EAMBER (non-restraint)  =        52.8415
 EKCMT  =        28.1103  VIRIAL  =       274.6525  VOLUME     =       108.7016
                                                    Density    =         0.0024
 Ewald error estimate:   0.1354E-03
 ------------------------------------------------------------------------------
