-------------------------------------------------------
          Amber 12 SANDER                              2012
          -------------------------------------------------------

  [-O]verwriting output

File Assignments:

 Here is the input file:

production run
 &cntrl
   ig=650960,
   irest=1, ntx=5,
   nstlim=50000, dt=0.002,
   ntc=2, ntf=1, tol=0.000001,
   ntb=2, nscm=50000,
   ntt=3, gamma_ln=2.0, temp0=300.0,
   ntp=1, taup=5.0,
   cut=10.0,
   ioutfm=1,
   ntpr=100, ntwx=100, ntwr=50000, iwrap=1,
   nmropt=1,
 /
 &wt
  type='DUMPFREQ', istep1=100,
 /
 &wt
  type='END',
 /
DISANG=run_-120_90.disang
DUMPAVE=run_-120_90.dat

--------------------------------------------------------------------------------
   1.  RESOURCE   USE:
--------------------------------------------------------------------------------

 getting new box info from bottom of inpcrd

 NATOM  =    4342 NTYPES =       9 NBONH =    4332 MBONA  =       9
 NTHETH =      25 MTHETA =      11 NPHIH =      43 MPHIA  =      24
 NHPARM =       0 NPARM  =       0 NNB   =    5859 NRES   =    1443
 NBONA  =       9 NTHETA =      11 NPHIA =      24 NUMBND =      13
 NUMANG =      21 NPTRA  =      20 NATYP =      10 NPHB   =       1
 IFBOX  =       1 NMXRS  =      10 IFCAP =       0 NEXTRA =       0
 NCOPY  =       0

     BOX TYPE: RECTILINEAR

--------------------------------------------------------------------------------
   2.  CONTROL  DATA  FOR  THE  RUN
--------------------------------------------------------------------------------

ACE

General flags:
     imin    =       0, nmropt  =       1

Nature and format of input:
     ntx     =       5, irest   =       1, ntrx    =       1

Nature and format of output:
     ntxo    =       1, ntpr    =     100, ntrx    =       1, ntwr    =   50000
     iwrap   =       1, ntwx    =     100, ntwv    =       0, ntwe    =       0
     ioutfm  =       1, ntwprt  =       0, idecomp =       0, rbornstat=      0

Potential function:
     ntf     =       1, ntb     =       2, igb     =       0, nsnb    =      25
     ipol    =       0, gbsa    =       0, iesp    =       0
     dielc   =   1.00000, cut     =  10.00000, intdiel =   1.00000

Frozen or restrained atoms:
     ibelly  =       0, ntr     =       0

Molecular dynamics:
     nstlim  =     50000, nscm    =     50000, nrespa  =         1
     t       =   0.00000, dt      =   0.00200, vlimit  =  20.00000

Langevin dynamics temperature regulation:
     ig      =  650960
     temp0   = 300.00000, tempi   =   0.00000, gamma_ln=   2.00000

Pressure regulation:
     ntp     =       1
     pres0   =   1.00000, comp    =  44.60000, taup    =   5.00000

SHAKE:
     ntc     =       2, jfastw  =       0
     tol     =   0.00000

NMR refinement options:
     iscale  =       0, noeskp  =       1, ipnlty  =       1, mxsub   =       1
     scalm   = 100.00000, pencut  =   0.10000, tausw   =   0.10000

Ewald parameters:
     verbose =       0, ew_type =       0, nbflag  =       1, use_pme =       1
     vdwmeth =       1, eedmeth =       1, netfrc  =       1
     Box X =   35.298   Box Y =   37.476   Box Z =   33.275
     Alpha =   90.000   Beta  =   90.000   Gamma =   90.000
     NFFT1 =   36       NFFT2 =   40       NFFT3 =   36
     Cutoff=   10.000   Tol   =0.100E-04
     Ewald Coefficient =  0.27511
     Interpolation order =    4

--------------------------------------------------------------------------------
   3.  ATOMIC COORDINATES AND VELOCITIES
--------------------------------------------------------------------------------

ACE
 begin time read from input coords =  1100.000 ps

           Begin reading energy term weight changes/NMR restraints
 WEIGHT CHANGES:
 DUMPFREQ    100      0    0.000000    0.000000      0      0
                         ** No weight changes given **

 RESTRAINTS:
 Requested file redirections:
  DISANG    = run_-120_90.disang
  DUMPAVE   = run_-120_90.dat
 Restraints will be read from file: run_-120_90.disang
Here are comments from the DISANG input file:

                       Number of restraints read =     2

                  Done reading weight changes/NMR restraints

 Number of triangulated 3-point waters found:     1440

     Sum of charges from parm topology file =  -0.00000000
     Forcing neutrality...

--------------------------------------------------------------------------------
   4.  RESULTS
 NSTEP =      100   TIME(PS) =    1100.200  TEMP(K) =   307.12  PRESS =  -363.5
 Etot   =    -11177.0877  EKtot   =      2652.9723  EPtot      =    -13830.0600
 BOND   =         3.8677  ANGLE   =         8.0820  DIHED      =        13.3892
 1-4 NB =         3.3438  1-4 EEL =        45.7759  VDWAALS    =      2014.1112
 EELEC  =    -15919.5456  EHBOND  =         0.0000  RESTRAINT  =         0.9159
 EAMBER (non-restraint)  =    -13830.9758
 EKCMT  =      1299.9721  VIRIAL  =      1645.2374  VOLUME     =     43986.7146
                                                    Density    =         0.9848
 Ewald error estimate:   0.9047E-04
 ------------------------------------------------------------------------------

      A V E R A G E S   O V E R   50000 S T E P S

 NSTEP =    50000   TIME(PS) =    1200.000  TEMP(K) =   300.08  PRESS =     1.2
 Etot   =    -11177.4965  EKtot   =      2592.2224  EPtot      =    -13769.7189
 BOND   =         3.1018  ANGLE   =         8.9861  DIHED      =        14.0766
 1-4 NB =         2.8422  1-4 EEL =        45.4881  VDWAALS    =      2044.5028
 EELEC  =    -15889.3329  EHBOND  =         0.0000  RESTRAINT  =         0.6163
 EAMBER (non-restraint)  =    -13770.3352
 EKCMT  =      1292.3547  VIRIAL  =      1291.1749  VOLUME     =     44023.8001
                                                    Density    =         0.9840
 Ewald error estimate:   0.1813E-03
 ------------------------------------------------------------------------------

      R M S  F L U C T U A T I O N S

 NSTEP =    50000   TIME(PS) =    1200.000  TEMP(K) =     4.43  PRESS =   283.5
 Etot   =        59.6422  EKtot   =        38.2890  EPtot      =        49.5244
 BOND   =         1.4100  ANGLE   =         2.2774  DIHED      =         1.1213
 1-4 NB =         0.6601  1-4 EEL =         2.0799  VDWAALS    =        54.9412
 EELEC  =        80.6241  EHBOND  =         0.0000  RESTRAINT  =         0.5997
 EAMBER (non-restraint)  =        48.9247
 EKCMT  =        26.9552  VIRIAL  =       268.7833  VOLUME     =        56.7343
                                                    Density    =         0.0013
 Ewald error estimate:   0.1385E-03
 ------------------------------------------------------------------------------
