-------------------------------------------------------
          Amber 12 SANDER                              2012
          -------------------------------------------------------

  [-O]verwriting output

File Assignments:

 Here is the input file:

production run
 &cntrl
   ig=582574,
   irest=1, ntx=5,
   nstlim=50000, dt=0.002,
   ntc=2, ntf=1, tol=0.000001,
   ntb=2, nscm=50000,
   ntt=3, gamma_ln=2.0, temp0=300.0,
   ntp=1, taup=5.0,
   cut=10.0,
   ioutfm=1,
   ntpr=100, ntwx=100, ntwr=50000, iwrap=1,
   nmropt=1,
 /
 &wt
  type='DUMPFREQ', istep1=100,
 /
 &wt
  type='END',
 /
DISANG=run_-150_150.disang
DUMPAVE=run_-150_150.dat

--------------------------------------------------------------------------------
   1.  RESOURCE   USE:
--------------------------------------------------------------------------------

 getting new box info from bottom of inpcrd

 NATOM  =    4342 NTYPES =       9 NBONH =    4332 MBONA  =       9
 NTHETH =      25 MTHETA =      11 NPHIH =      43 MPHIA  =      24
 NHPARM =       0 NPARM  =       0 NNB   =    5859 NRES   =    1443
 NBONA  =       9 NTHETA =      11 NPHIA =      24 NUMBND =      13
 NUMANG =      21 NPTRA  =      20 NATYP =      10 NPHB   =       1
 IFBOX  =       1 NMXRS  =      10 IFCAP =       0 NEXTRA =       0
 NCOPY  =       0

     BOX TYPE: RECTILINEAR

--------------------------------------------------------------------------------
   2.  CONTROL  DATA  FOR  THE  RUN
--------------------------------------------------------------------------------

ACE

General flags:
     imin    =       0, nmropt  =       1

Nature and format of input:
     ntx     =       5, irest   =       1, ntrx    =       1

Nature and format of output:
     ntxo    =       1, ntpr    =     100, ntrx    =       1, ntwr    =   50000
     iwrap   =       1, ntwx    =     100, ntwv    =       0, ntwe    =       0
     ioutfm  =       1, ntwprt  =       0, idecomp =       0, rbornstat=      0

Potential function:
     ntf     =       1, ntb     =       2, igb     =       0, nsnb    =      25
     ipol    =       0, gbsa    =       0, iesp    =       0
     dielc   =   1.00000, cut     =  10.00000, intdiel =   1.00000

Frozen or restrained atoms:
     ibelly  =       0, ntr     =       0

Molecular dynamics:
     nstlim  =     50000, nscm    =     50000, nrespa  =         1
     t       =   0.00000, dt      =   0.00200, vlimit  =  20.00000

Langevin dynamics temperature regulation:
     ig      =  582574
     temp0   = 300.00000, tempi   =   0.00000, gamma_ln=   2.00000

Pressure regulation:
     ntp     =       1
     pres0   =   1.00000, comp    =  44.60000, taup    =   5.00000

SHAKE:
     ntc     =       2, jfastw  =       0
     tol     =   0.00000

NMR refinement options:
     iscale  =       0, noeskp  =       1, ipnlty  =       1, mxsub   =       1
     scalm   = 100.00000, pencut  =   0.10000, tausw   =   0.10000

Ewald parameters:
     verbose =       0, ew_type =       0, nbflag  =       1, use_pme =       1
     vdwmeth =       1, eedmeth =       1, netfrc  =       1
     Box X =   35.258   Box Y =   37.434   Box Z =   33.237
     Alpha =   90.000   Beta  =   90.000   Gamma =   90.000
     NFFT1 =   36       NFFT2 =   40       NFFT3 =   36
     Cutoff=   10.000   Tol   =0.100E-04
     Ewald Coefficient =  0.27511
     Interpolation order =    4

--------------------------------------------------------------------------------
   3.  ATOMIC COORDINATES AND VELOCITIES
--------------------------------------------------------------------------------

ACE
 begin time read from input coords =  1100.000 ps

           Begin reading energy term weight changes/NMR restraints
 WEIGHT CHANGES:
 DUMPFREQ    100      0    0.000000    0.000000      0      0
                         ** No weight changes given **

 RESTRAINTS:
 Requested file redirections:
  DISANG    = run_-150_150.disang
  DUMPAVE   = run_-150_150.dat
 Restraints will be read from file: run_-150_150.disang
Here are comments from the DISANG input file:

                       Number of restraints read =     2

                  Done reading weight changes/NMR restraints

 Number of triangulated 3-point waters found:     1440

     Sum of charges from parm topology file =  -0.00000000
     Forcing neutrality...

--------------------------------------------------------------------------------
   4.  RESULTS
 NSTEP =      100   TIME(PS) =    1100.200  TEMP(K) =   300.49  PRESS =   443.2
 Etot   =    -11143.4064  EKtot   =      2595.7667  EPtot      =    -13739.1731
 BOND   =         2.6567  ANGLE   =         6.4328  DIHED      =        10.4751
 1-4 NB =         3.2229  1-4 EEL =        45.4082  VDWAALS    =      2092.5618
 EELEC  =    -15900.0060  EHBOND  =         0.0000  RESTRAINT  =         0.0754
 EAMBER (non-restraint)  =    -13739.2485
 EKCMT  =      1309.4650  VIRIAL  =       889.6499  VOLUME     =     43870.4364
                                                    Density    =         0.9874
 Ewald error estimate:   0.2287E-03
 ------------------------------------------------------------------------------

      A V E R A G E S   O V E R   50000 S T E P S

 NSTEP =    50000   TIME(PS) =    1200.000  TEMP(K) =   299.45  PRESS =     6.3
 Etot   =    -11194.8085  EKtot   =      2586.7536  EPtot      =    -13781.5620
 BOND   =         3.2457  ANGLE   =         9.0245  DIHED      =        11.2769
 1-4 NB =         3.1821  1-4 EEL =        45.8574  VDWAALS    =      2052.4815
 EELEC  =    -15907.1809  EHBOND  =         0.0000  RESTRAINT  =         0.5508
 EAMBER (non-restraint)  =    -13782.1128
 EKCMT  =      1290.5809  VIRIAL  =      1284.6139  VOLUME     =     44071.5785
                                                    Density    =         0.9829
 Ewald error estimate:   0.1769E-03
 ------------------------------------------------------------------------------

      R M S  F L U C T U A T I O N S

 NSTEP =    50000   TIME(PS) =    1200.000  TEMP(K) =     4.61  PRESS =   285.2
 Etot   =        75.9779  EKtot   =        39.8609  EPtot      =        60.6328
 BOND   =         1.5115  ANGLE   =         2.3123  DIHED      =         1.1702
 1-4 NB =         0.7347  1-4 EEL =         2.1850  VDWAALS    =        56.4513
 EELEC  =        92.4936  EHBOND  =         0.0000  RESTRAINT  =         0.5506
 EAMBER (non-restraint)  =        60.0821
 EKCMT  =        28.0031  VIRIAL  =       271.2395  VOLUME     =        90.2279
                                                    Density    =         0.0020
 Ewald error estimate:   0.1332E-03
 ------------------------------------------------------------------------------
