-------------------------------------------------------
          Amber 12 SANDER                              2012
          -------------------------------------------------------

  [-O]verwriting output

File Assignments:

 Here is the input file:

production run
 &cntrl
   ig=895635,
   irest=1, ntx=5,
   nstlim=50000, dt=0.002,
   ntc=2, ntf=1, tol=0.000001,
   ntb=2, nscm=50000,
   ntt=3, gamma_ln=2.0, temp0=300.0,
   ntp=1, taup=5.0,
   cut=10.0,
   ioutfm=1,
   ntpr=100, ntwx=100, ntwr=50000, iwrap=1,
   nmropt=1,
 /
 &wt
  type='DUMPFREQ', istep1=100,
 /
 &wt
  type='END',
 /
DISANG=run_-45_15.disang
DUMPAVE=run_-45_15.dat

--------------------------------------------------------------------------------
   1.  RESOURCE   USE:
--------------------------------------------------------------------------------

 getting new box info from bottom of inpcrd

 NATOM  =    4342 NTYPES =       9 NBONH =    4332 MBONA  =       9
 NTHETH =      25 MTHETA =      11 NPHIH =      43 MPHIA  =      24
 NHPARM =       0 NPARM  =       0 NNB   =    5859 NRES   =    1443
 NBONA  =       9 NTHETA =      11 NPHIA =      24 NUMBND =      13
 NUMANG =      21 NPTRA  =      20 NATYP =      10 NPHB   =       1
 IFBOX  =       1 NMXRS  =      10 IFCAP =       0 NEXTRA =       0
 NCOPY  =       0

     BOX TYPE: RECTILINEAR

--------------------------------------------------------------------------------
   2.  CONTROL  DATA  FOR  THE  RUN
--------------------------------------------------------------------------------

ACE

General flags:
     imin    =       0, nmropt  =       1

Nature and format of input:
     ntx     =       5, irest   =       1, ntrx    =       1

Nature and format of output:
     ntxo    =       1, ntpr    =     100, ntrx    =       1, ntwr    =   50000
     iwrap   =       1, ntwx    =     100, ntwv    =       0, ntwe    =       0
     ioutfm  =       1, ntwprt  =       0, idecomp =       0, rbornstat=      0

Potential function:
     ntf     =       1, ntb     =       2, igb     =       0, nsnb    =      25
     ipol    =       0, gbsa    =       0, iesp    =       0
     dielc   =   1.00000, cut     =  10.00000, intdiel =   1.00000

Frozen or restrained atoms:
     ibelly  =       0, ntr     =       0

Molecular dynamics:
     nstlim  =     50000, nscm    =     50000, nrespa  =         1
     t       =   0.00000, dt      =   0.00200, vlimit  =  20.00000

Langevin dynamics temperature regulation:
     ig      =  895635
     temp0   = 300.00000, tempi   =   0.00000, gamma_ln=   2.00000

Pressure regulation:
     ntp     =       1
     pres0   =   1.00000, comp    =  44.60000, taup    =   5.00000

SHAKE:
     ntc     =       2, jfastw  =       0
     tol     =   0.00000

NMR refinement options:
     iscale  =       0, noeskp  =       1, ipnlty  =       1, mxsub   =       1
     scalm   = 100.00000, pencut  =   0.10000, tausw   =   0.10000

Ewald parameters:
     verbose =       0, ew_type =       0, nbflag  =       1, use_pme =       1
     vdwmeth =       1, eedmeth =       1, netfrc  =       1
     Box X =   35.290   Box Y =   37.468   Box Z =   33.268
     Alpha =   90.000   Beta  =   90.000   Gamma =   90.000
     NFFT1 =   36       NFFT2 =   40       NFFT3 =   36
     Cutoff=   10.000   Tol   =0.100E-04
     Ewald Coefficient =  0.27511
     Interpolation order =    4

--------------------------------------------------------------------------------
   3.  ATOMIC COORDINATES AND VELOCITIES
--------------------------------------------------------------------------------

ACE
 begin time read from input coords =  1100.000 ps

           Begin reading energy term weight changes/NMR restraints
 WEIGHT CHANGES:
 DUMPFREQ    100      0    0.000000    0.000000      0      0
                         ** No weight changes given **

 RESTRAINTS:
 Requested file redirections:
  DISANG    = run_-45_15.disang
  DUMPAVE   = run_-45_15.dat
 Restraints will be read from file: run_-45_15.disang
Here are comments from the DISANG input file:

                       Number of restraints read =     2

                  Done reading weight changes/NMR restraints

 Number of triangulated 3-point waters found:     1440

     Sum of charges from parm topology file =  -0.00000000
     Forcing neutrality...

--------------------------------------------------------------------------------
   4.  RESULTS
 NSTEP =      100   TIME(PS) =    1100.200  TEMP(K) =   304.80  PRESS =   369.3
 Etot   =    -11108.8216  EKtot   =      2632.9542  EPtot      =    -13741.7758
 BOND   =         3.9567  ANGLE   =         9.0969  DIHED      =         9.4850
 1-4 NB =         3.3929  1-4 EEL =        44.2680  VDWAALS    =      2087.8121
 EELEC  =    -15901.6231  EHBOND  =         0.0000  RESTRAINT  =         1.8357
 EAMBER (non-restraint)  =    -13743.6115
 EKCMT  =      1352.8340  VIRIAL  =      1001.9121  VOLUME     =     44010.2007
                                                    Density    =         0.9843
 Ewald error estimate:   0.1129E-03
 ------------------------------------------------------------------------------

      A V E R A G E S   O V E R   50000 S T E P S

 NSTEP =    50000   TIME(PS) =    1200.000  TEMP(K) =   300.24  PRESS =     0.8
 Etot   =    -11176.1576  EKtot   =      2593.5734  EPtot      =    -13769.7310
 BOND   =         3.5430  ANGLE   =        12.2606  DIHED      =        10.9889
 1-4 NB =         2.8995  1-4 EEL =        43.3024  VDWAALS    =      2042.8406
 EELEC  =    -15886.7976  EHBOND  =         0.0000  RESTRAINT  =         1.2314
 EAMBER (non-restraint)  =    -13770.9624
 EKCMT  =      1294.6576  VIRIAL  =      1293.9387  VOLUME     =     43987.6831
                                                    Density    =         0.9848
 Ewald error estimate:   0.1759E-03
 ------------------------------------------------------------------------------

      R M S  F L U C T U A T I O N S

 NSTEP =    50000   TIME(PS) =    1200.000  TEMP(K) =     4.45  PRESS =   278.8
 Etot   =        65.4120  EKtot   =        38.4808  EPtot      =        52.9691
 BOND   =         1.6085  ANGLE   =         2.7317  DIHED      =         1.1375
 1-4 NB =         0.6568  1-4 EEL =         1.6676  VDWAALS    =        54.1084
 EELEC  =        82.8936  EHBOND  =         0.0000  RESTRAINT  =         1.0007
 EAMBER (non-restraint)  =        51.9684
 EKCMT  =        27.9034  VIRIAL  =       263.9163  VOLUME     =        59.6836
                                                    Density    =         0.0013
 Ewald error estimate:   0.1353E-03
 ------------------------------------------------------------------------------
