-------------------------------------------------------
          Amber 12 SANDER                              2012
          -------------------------------------------------------

  [-O]verwriting output

File Assignments:

 Here is the input file:

production run
 &cntrl
   ig=355347,
   irest=1, ntx=5,
   nstlim=50000, dt=0.002,
   ntc=2, ntf=1, tol=0.000001,
   ntb=2, nscm=50000,
   ntt=3, gamma_ln=2.0, temp0=300.0,
   ntp=1, taup=5.0,
   cut=10.0,
   ioutfm=1,
   ntpr=100, ntwx=100, ntwr=50000, iwrap=1,
   nmropt=1,
 /
 &wt
  type='DUMPFREQ', istep1=100,
 /
 &wt
  type='END',
 /
DISANG=run_-15_15.disang
DUMPAVE=run_-15_15.dat

--------------------------------------------------------------------------------
   1.  RESOURCE   USE:
--------------------------------------------------------------------------------

 getting new box info from bottom of inpcrd

 NATOM  =    4342 NTYPES =       9 NBONH =    4332 MBONA  =       9
 NTHETH =      25 MTHETA =      11 NPHIH =      43 MPHIA  =      24
 NHPARM =       0 NPARM  =       0 NNB   =    5859 NRES   =    1443
 NBONA  =       9 NTHETA =      11 NPHIA =      24 NUMBND =      13
 NUMANG =      21 NPTRA  =      20 NATYP =      10 NPHB   =       1
 IFBOX  =       1 NMXRS  =      10 IFCAP =       0 NEXTRA =       0
 NCOPY  =       0

     BOX TYPE: RECTILINEAR

--------------------------------------------------------------------------------
   2.  CONTROL  DATA  FOR  THE  RUN
--------------------------------------------------------------------------------

ACE

General flags:
     imin    =       0, nmropt  =       1

Nature and format of input:
     ntx     =       5, irest   =       1, ntrx    =       1

Nature and format of output:
     ntxo    =       1, ntpr    =     100, ntrx    =       1, ntwr    =   50000
     iwrap   =       1, ntwx    =     100, ntwv    =       0, ntwe    =       0
     ioutfm  =       1, ntwprt  =       0, idecomp =       0, rbornstat=      0

Potential function:
     ntf     =       1, ntb     =       2, igb     =       0, nsnb    =      25
     ipol    =       0, gbsa    =       0, iesp    =       0
     dielc   =   1.00000, cut     =  10.00000, intdiel =   1.00000

Frozen or restrained atoms:
     ibelly  =       0, ntr     =       0

Molecular dynamics:
     nstlim  =     50000, nscm    =     50000, nrespa  =         1
     t       =   0.00000, dt      =   0.00200, vlimit  =  20.00000

Langevin dynamics temperature regulation:
     ig      =  355347
     temp0   = 300.00000, tempi   =   0.00000, gamma_ln=   2.00000

Pressure regulation:
     ntp     =       1
     pres0   =   1.00000, comp    =  44.60000, taup    =   5.00000

SHAKE:
     ntc     =       2, jfastw  =       0
     tol     =   0.00000

NMR refinement options:
     iscale  =       0, noeskp  =       1, ipnlty  =       1, mxsub   =       1
     scalm   = 100.00000, pencut  =   0.10000, tausw   =   0.10000

Ewald parameters:
     verbose =       0, ew_type =       0, nbflag  =       1, use_pme =       1
     vdwmeth =       1, eedmeth =       1, netfrc  =       1
     Box X =   35.316   Box Y =   37.495   Box Z =   33.291
     Alpha =   90.000   Beta  =   90.000   Gamma =   90.000
     NFFT1 =   36       NFFT2 =   40       NFFT3 =   36
     Cutoff=   10.000   Tol   =0.100E-04
     Ewald Coefficient =  0.27511
     Interpolation order =    4

--------------------------------------------------------------------------------
   3.  ATOMIC COORDINATES AND VELOCITIES
--------------------------------------------------------------------------------

ACE
 begin time read from input coords =  1100.000 ps

           Begin reading energy term weight changes/NMR restraints
 WEIGHT CHANGES:
 DUMPFREQ    100      0    0.000000    0.000000      0      0
                         ** No weight changes given **

 RESTRAINTS:
 Requested file redirections:
  DISANG    = run_-15_15.disang
  DUMPAVE   = run_-15_15.dat
 Restraints will be read from file: run_-15_15.disang
Here are comments from the DISANG input file:

                       Number of restraints read =     2

                  Done reading weight changes/NMR restraints

 Number of triangulated 3-point waters found:     1440

     Sum of charges from parm topology file =  -0.00000000
     Forcing neutrality...

--------------------------------------------------------------------------------
   4.  RESULTS
 NSTEP =      100   TIME(PS) =    1100.200  TEMP(K) =   295.40  PRESS =  -491.6
 Etot   =    -11214.7045  EKtot   =      2551.7720  EPtot      =    -13766.4765
 BOND   =         5.4743  ANGLE   =        14.7010  DIHED      =        16.6188
 1-4 NB =         1.9002  1-4 EEL =        40.2015  VDWAALS    =      1977.5684
 EELEC  =    -15823.2628  EHBOND  =         0.0000  RESTRAINT  =         0.3222
 EAMBER (non-restraint)  =    -13766.7987
 EKCMT  =      1251.0092  VIRIAL  =      1718.5734  VOLUME     =     44053.5780
                                                    Density    =         0.9833
 Ewald error estimate:   0.1720E-03
 ------------------------------------------------------------------------------

      A V E R A G E S   O V E R   50000 S T E P S

 NSTEP =    50000   TIME(PS) =    1200.000  TEMP(K) =   300.16  PRESS =    -2.8
 Etot   =    -11163.9477  EKtot   =      2592.9082  EPtot      =    -13756.8559
 BOND   =         3.9173  ANGLE   =        17.4904  DIHED      =        12.5972
 1-4 NB =         2.5374  1-4 EEL =        40.7495  VDWAALS    =      2047.6642
 EELEC  =    -15883.3058  EHBOND  =         0.0000  RESTRAINT  =         1.4939
 EAMBER (non-restraint)  =    -13758.3498
 EKCMT  =      1293.1556  VIRIAL  =      1295.8117  VOLUME     =     44064.7748
                                                    Density    =         0.9831
 Ewald error estimate:   0.1872E-03
 ------------------------------------------------------------------------------

      R M S  F L U C T U A T I O N S

 NSTEP =    50000   TIME(PS) =    1200.000  TEMP(K) =     4.46  PRESS =   277.9
 Etot   =        67.7528  EKtot   =        38.5598  EPtot      =        55.4344
 BOND   =         1.7406  ANGLE   =         3.0142  DIHED      =         1.5134
 1-4 NB =         0.6298  1-4 EEL =         1.6047  VDWAALS    =        55.2171
 EELEC  =        86.3776  EHBOND  =         0.0000  RESTRAINT  =         1.2631
 EAMBER (non-restraint)  =        54.1713
 EKCMT  =        27.9206  VIRIAL  =       263.8878  VOLUME     =       133.7923
                                                    Density    =         0.0030
 Ewald error estimate:   0.1398E-03
 ------------------------------------------------------------------------------
