-------------------------------------------------------
          Amber 12 SANDER                              2012
          -------------------------------------------------------

  [-O]verwriting output

File Assignments:

 Here is the input file:

production run
 &cntrl
   ig=141306,
   irest=1, ntx=5,
   nstlim=50000, dt=0.002,
   ntc=2, ntf=1, tol=0.000001,
   ntb=2, nscm=50000,
   ntt=3, gamma_ln=2.0, temp0=300.0,
   ntp=1, taup=5.0,
   cut=10.0,
   ioutfm=1,
   ntpr=100, ntwx=100, ntwr=50000, iwrap=1,
   nmropt=1,
 /
 &wt
  type='DUMPFREQ', istep1=100,
 /
 &wt
  type='END',
 /
DISANG=run_-165_0.disang
DUMPAVE=run_-165_0.dat

--------------------------------------------------------------------------------
   1.  RESOURCE   USE:
--------------------------------------------------------------------------------

 getting new box info from bottom of inpcrd

 NATOM  =    4342 NTYPES =       9 NBONH =    4332 MBONA  =       9
 NTHETH =      25 MTHETA =      11 NPHIH =      43 MPHIA  =      24
 NHPARM =       0 NPARM  =       0 NNB   =    5859 NRES   =    1443
 NBONA  =       9 NTHETA =      11 NPHIA =      24 NUMBND =      13
 NUMANG =      21 NPTRA  =      20 NATYP =      10 NPHB   =       1
 IFBOX  =       1 NMXRS  =      10 IFCAP =       0 NEXTRA =       0
 NCOPY  =       0

     BOX TYPE: RECTILINEAR

--------------------------------------------------------------------------------
   2.  CONTROL  DATA  FOR  THE  RUN
--------------------------------------------------------------------------------

ACE

General flags:
     imin    =       0, nmropt  =       1

Nature and format of input:
     ntx     =       5, irest   =       1, ntrx    =       1

Nature and format of output:
     ntxo    =       1, ntpr    =     100, ntrx    =       1, ntwr    =   50000
     iwrap   =       1, ntwx    =     100, ntwv    =       0, ntwe    =       0
     ioutfm  =       1, ntwprt  =       0, idecomp =       0, rbornstat=      0

Potential function:
     ntf     =       1, ntb     =       2, igb     =       0, nsnb    =      25
     ipol    =       0, gbsa    =       0, iesp    =       0
     dielc   =   1.00000, cut     =  10.00000, intdiel =   1.00000

Frozen or restrained atoms:
     ibelly  =       0, ntr     =       0

Molecular dynamics:
     nstlim  =     50000, nscm    =     50000, nrespa  =         1
     t       =   0.00000, dt      =   0.00200, vlimit  =  20.00000

Langevin dynamics temperature regulation:
     ig      =  141306
     temp0   = 300.00000, tempi   =   0.00000, gamma_ln=   2.00000

Pressure regulation:
     ntp     =       1
     pres0   =   1.00000, comp    =  44.60000, taup    =   5.00000

SHAKE:
     ntc     =       2, jfastw  =       0
     tol     =   0.00000

NMR refinement options:
     iscale  =       0, noeskp  =       1, ipnlty  =       1, mxsub   =       1
     scalm   = 100.00000, pencut  =   0.10000, tausw   =   0.10000

Ewald parameters:
     verbose =       0, ew_type =       0, nbflag  =       1, use_pme =       1
     vdwmeth =       1, eedmeth =       1, netfrc  =       1
     Box X =   35.325   Box Y =   37.505   Box Z =   33.300
     Alpha =   90.000   Beta  =   90.000   Gamma =   90.000
     NFFT1 =   36       NFFT2 =   40       NFFT3 =   36
     Cutoff=   10.000   Tol   =0.100E-04
     Ewald Coefficient =  0.27511
     Interpolation order =    4

--------------------------------------------------------------------------------
   3.  ATOMIC COORDINATES AND VELOCITIES
--------------------------------------------------------------------------------

ACE
 begin time read from input coords =  1100.000 ps

           Begin reading energy term weight changes/NMR restraints
 WEIGHT CHANGES:
 DUMPFREQ    100      0    0.000000    0.000000      0      0
                         ** No weight changes given **

 RESTRAINTS:
 Requested file redirections:
  DISANG    = run_-165_0.disang
  DUMPAVE   = run_-165_0.dat
 Restraints will be read from file: run_-165_0.disang
Here are comments from the DISANG input file:

                       Number of restraints read =     2

                  Done reading weight changes/NMR restraints

 Number of triangulated 3-point waters found:     1440

     Sum of charges from parm topology file =  -0.00000000
     Forcing neutrality...

--------------------------------------------------------------------------------
   4.  RESULTS
 NSTEP =      100   TIME(PS) =    1100.200  TEMP(K) =   301.69  PRESS =   -94.4
 Etot   =    -11226.0156  EKtot   =      2606.1347  EPtot      =    -13832.1502
 BOND   =         2.9237  ANGLE   =         5.1069  DIHED      =        11.3001
 1-4 NB =         3.9614  1-4 EEL =        43.4009  VDWAALS    =      2058.5763
 EELEC  =    -15958.4697  EHBOND  =         0.0000  RESTRAINT  =         1.0501
 EAMBER (non-restraint)  =    -13833.2003
 EKCMT  =      1268.1130  VIRIAL  =      1358.0362  VOLUME     =     44125.4680
                                                    Density    =         0.9817
 Ewald error estimate:   0.1223E-03
 ------------------------------------------------------------------------------

      A V E R A G E S   O V E R   50000 S T E P S

 NSTEP =    50000   TIME(PS) =    1200.000  TEMP(K) =   300.16  PRESS =    -1.6
 Etot   =    -11177.4951  EKtot   =      2592.8956  EPtot      =    -13770.3907
 BOND   =         3.3992  ANGLE   =         9.5972  DIHED      =        10.8497
 1-4 NB =         3.7848  1-4 EEL =        43.0732  VDWAALS    =      2045.3360
 EELEC  =    -15887.1313  EHBOND  =         0.0000  RESTRAINT  =         0.7004
 EAMBER (non-restraint)  =    -13771.0911
 EKCMT  =      1292.6446  VIRIAL  =      1294.1997  VOLUME     =     44033.0216
                                                    Density    =         0.9838
 Ewald error estimate:   0.1798E-03
 ------------------------------------------------------------------------------

      R M S  F L U C T U A T I O N S

 NSTEP =    50000   TIME(PS) =    1200.000  TEMP(K) =     4.58  PRESS =   281.4
 Etot   =        68.7287  EKtot   =        39.5328  EPtot      =        54.0847
 BOND   =         1.5726  ANGLE   =         2.4893  DIHED      =         1.1506
 1-4 NB =         0.7911  1-4 EEL =         1.7783  VDWAALS    =        54.8100
 EELEC  =        84.6199  EHBOND  =         0.0000  RESTRAINT  =         0.6648
 EAMBER (non-restraint)  =        53.4200
 EKCMT  =        27.3894  VIRIAL  =       267.5425  VOLUME     =        71.5584
                                                    Density    =         0.0016
 Ewald error estimate:   0.1376E-03
 ------------------------------------------------------------------------------
