-------------------------------------------------------
          Amber 12 SANDER                              2012
          -------------------------------------------------------

  [-O]verwriting output

File Assignments:

 Here is the input file:

production run
 &cntrl
   ig=624736,
   irest=1, ntx=5,
   nstlim=50000, dt=0.002,
   ntc=2, ntf=1, tol=0.000001,
   ntb=2, nscm=50000,
   ntt=3, gamma_ln=2.0, temp0=300.0,
   ntp=1, taup=5.0,
   cut=10.0,
   ioutfm=1,
   ntpr=100, ntwx=100, ntwr=50000, iwrap=1,
   nmropt=1,
 /
 &wt
  type='DUMPFREQ', istep1=100,
 /
 &wt
  type='END',
 /
DISANG=run_-45_30.disang
DUMPAVE=run_-45_30.dat

--------------------------------------------------------------------------------
   1.  RESOURCE   USE:
--------------------------------------------------------------------------------

 getting new box info from bottom of inpcrd

 NATOM  =    4342 NTYPES =       9 NBONH =    4332 MBONA  =       9
 NTHETH =      25 MTHETA =      11 NPHIH =      43 MPHIA  =      24
 NHPARM =       0 NPARM  =       0 NNB   =    5859 NRES   =    1443
 NBONA  =       9 NTHETA =      11 NPHIA =      24 NUMBND =      13
 NUMANG =      21 NPTRA  =      20 NATYP =      10 NPHB   =       1
 IFBOX  =       1 NMXRS  =      10 IFCAP =       0 NEXTRA =       0
 NCOPY  =       0

     BOX TYPE: RECTILINEAR

--------------------------------------------------------------------------------
   2.  CONTROL  DATA  FOR  THE  RUN
--------------------------------------------------------------------------------

ACE

General flags:
     imin    =       0, nmropt  =       1

Nature and format of input:
     ntx     =       5, irest   =       1, ntrx    =       1

Nature and format of output:
     ntxo    =       1, ntpr    =     100, ntrx    =       1, ntwr    =   50000
     iwrap   =       1, ntwx    =     100, ntwv    =       0, ntwe    =       0
     ioutfm  =       1, ntwprt  =       0, idecomp =       0, rbornstat=      0

Potential function:
     ntf     =       1, ntb     =       2, igb     =       0, nsnb    =      25
     ipol    =       0, gbsa    =       0, iesp    =       0
     dielc   =   1.00000, cut     =  10.00000, intdiel =   1.00000

Frozen or restrained atoms:
     ibelly  =       0, ntr     =       0

Molecular dynamics:
     nstlim  =     50000, nscm    =     50000, nrespa  =         1
     t       =   0.00000, dt      =   0.00200, vlimit  =  20.00000

Langevin dynamics temperature regulation:
     ig      =  624736
     temp0   = 300.00000, tempi   =   0.00000, gamma_ln=   2.00000

Pressure regulation:
     ntp     =       1
     pres0   =   1.00000, comp    =  44.60000, taup    =   5.00000

SHAKE:
     ntc     =       2, jfastw  =       0
     tol     =   0.00000

NMR refinement options:
     iscale  =       0, noeskp  =       1, ipnlty  =       1, mxsub   =       1
     scalm   = 100.00000, pencut  =   0.10000, tausw   =   0.10000

Ewald parameters:
     verbose =       0, ew_type =       0, nbflag  =       1, use_pme =       1
     vdwmeth =       1, eedmeth =       1, netfrc  =       1
     Box X =   35.358   Box Y =   37.540   Box Z =   33.331
     Alpha =   90.000   Beta  =   90.000   Gamma =   90.000
     NFFT1 =   36       NFFT2 =   40       NFFT3 =   36
     Cutoff=   10.000   Tol   =0.100E-04
     Ewald Coefficient =  0.27511
     Interpolation order =    4

--------------------------------------------------------------------------------
   3.  ATOMIC COORDINATES AND VELOCITIES
--------------------------------------------------------------------------------

ACE
 begin time read from input coords =  1100.000 ps

           Begin reading energy term weight changes/NMR restraints
 WEIGHT CHANGES:
 DUMPFREQ    100      0    0.000000    0.000000      0      0
                         ** No weight changes given **

 RESTRAINTS:
 Requested file redirections:
  DISANG    = run_-45_30.disang
  DUMPAVE   = run_-45_30.dat
 Restraints will be read from file: run_-45_30.disang
Here are comments from the DISANG input file:

                       Number of restraints read =     2

                  Done reading weight changes/NMR restraints

 Number of triangulated 3-point waters found:     1440

     Sum of charges from parm topology file =  -0.00000000
     Forcing neutrality...

--------------------------------------------------------------------------------
   4.  RESULTS
 NSTEP =      100   TIME(PS) =    1100.200  TEMP(K) =   301.00  PRESS =    43.8
 Etot   =    -11179.4853  EKtot   =      2600.1153  EPtot      =    -13779.6006
 BOND   =         4.7607  ANGLE   =        11.2450  DIHED      =        12.3868
 1-4 NB =         3.7644  1-4 EEL =        43.6340  VDWAALS    =      2074.0937
 EELEC  =    -15930.5264  EHBOND  =         0.0000  RESTRAINT  =         1.0413
 EAMBER (non-restraint)  =    -13780.6418
 EKCMT  =      1335.4485  VIRIAL  =      1293.6312  VOLUME     =     44223.3314
                                                    Density    =         0.9796
 Ewald error estimate:   0.4047E-04
 ------------------------------------------------------------------------------

      A V E R A G E S   O V E R   50000 S T E P S

 NSTEP =    50000   TIME(PS) =    1200.000  TEMP(K) =   300.62  PRESS =    -2.2
 Etot   =    -11153.9521  EKtot   =      2596.8846  EPtot      =    -13750.8367
 BOND   =         3.6395  ANGLE   =        12.7139  DIHED      =        11.4727
 1-4 NB =         2.8963  1-4 EEL =        43.1799  VDWAALS    =      2044.2602
 EELEC  =    -15870.2538  EHBOND  =         0.0000  RESTRAINT  =         1.2546
 EAMBER (non-restraint)  =    -13752.0913
 EKCMT  =      1296.6246  VIRIAL  =      1298.7614  VOLUME     =     44110.0626
                                                    Density    =         0.9821
 Ewald error estimate:   0.1846E-03
 ------------------------------------------------------------------------------

      R M S  F L U C T U A T I O N S

 NSTEP =    50000   TIME(PS) =    1200.000  TEMP(K) =     4.61  PRESS =   284.2
 Etot   =        65.4371  EKtot   =        39.8378  EPtot      =        53.7338
 BOND   =         1.6065  ANGLE   =         2.7660  DIHED      =         1.1755
 1-4 NB =         0.6721  1-4 EEL =         1.7256  VDWAALS    =        56.6370
 EELEC  =        87.2759  EHBOND  =         0.0000  RESTRAINT  =         1.0130
 EAMBER (non-restraint)  =        52.7208
 EKCMT  =        28.2239  VIRIAL  =       270.7722  VOLUME     =        86.4308
                                                    Density    =         0.0019
 Ewald error estimate:   0.1393E-03
 ------------------------------------------------------------------------------
