-------------------------------------------------------
          Amber 12 SANDER                              2012
          -------------------------------------------------------

  [-O]verwriting output

File Assignments:

 Here is the input file:

production run
 &cntrl
   ig=701297,
   irest=1, ntx=5,
   nstlim=50000, dt=0.002,
   ntc=2, ntf=1, tol=0.000001,
   ntb=2, nscm=50000,
   ntt=3, gamma_ln=2.0, temp0=300.0,
   ntp=1, taup=5.0,
   cut=10.0,
   ioutfm=1,
   ntpr=100, ntwx=100, ntwr=50000, iwrap=1,
   nmropt=1,
 /
 &wt
  type='DUMPFREQ', istep1=100,
 /
 &wt
  type='END',
 /
DISANG=run_-60_75.disang
DUMPAVE=run_-60_75.dat

--------------------------------------------------------------------------------
   1.  RESOURCE   USE:
--------------------------------------------------------------------------------

 getting new box info from bottom of inpcrd

 NATOM  =    4342 NTYPES =       9 NBONH =    4332 MBONA  =       9
 NTHETH =      25 MTHETA =      11 NPHIH =      43 MPHIA  =      24
 NHPARM =       0 NPARM  =       0 NNB   =    5859 NRES   =    1443
 NBONA  =       9 NTHETA =      11 NPHIA =      24 NUMBND =      13
 NUMANG =      21 NPTRA  =      20 NATYP =      10 NPHB   =       1
 IFBOX  =       1 NMXRS  =      10 IFCAP =       0 NEXTRA =       0
 NCOPY  =       0

     BOX TYPE: RECTILINEAR

--------------------------------------------------------------------------------
   2.  CONTROL  DATA  FOR  THE  RUN
--------------------------------------------------------------------------------

ACE

General flags:
     imin    =       0, nmropt  =       1

Nature and format of input:
     ntx     =       5, irest   =       1, ntrx    =       1

Nature and format of output:
     ntxo    =       1, ntpr    =     100, ntrx    =       1, ntwr    =   50000
     iwrap   =       1, ntwx    =     100, ntwv    =       0, ntwe    =       0
     ioutfm  =       1, ntwprt  =       0, idecomp =       0, rbornstat=      0

Potential function:
     ntf     =       1, ntb     =       2, igb     =       0, nsnb    =      25
     ipol    =       0, gbsa    =       0, iesp    =       0
     dielc   =   1.00000, cut     =  10.00000, intdiel =   1.00000

Frozen or restrained atoms:
     ibelly  =       0, ntr     =       0

Molecular dynamics:
     nstlim  =     50000, nscm    =     50000, nrespa  =         1
     t       =   0.00000, dt      =   0.00200, vlimit  =  20.00000

Langevin dynamics temperature regulation:
     ig      =  701297
     temp0   = 300.00000, tempi   =   0.00000, gamma_ln=   2.00000

Pressure regulation:
     ntp     =       1
     pres0   =   1.00000, comp    =  44.60000, taup    =   5.00000

SHAKE:
     ntc     =       2, jfastw  =       0
     tol     =   0.00000

NMR refinement options:
     iscale  =       0, noeskp  =       1, ipnlty  =       1, mxsub   =       1
     scalm   = 100.00000, pencut  =   0.10000, tausw   =   0.10000

Ewald parameters:
     verbose =       0, ew_type =       0, nbflag  =       1, use_pme =       1
     vdwmeth =       1, eedmeth =       1, netfrc  =       1
     Box X =   35.287   Box Y =   37.465   Box Z =   33.265
     Alpha =   90.000   Beta  =   90.000   Gamma =   90.000
     NFFT1 =   36       NFFT2 =   40       NFFT3 =   36
     Cutoff=   10.000   Tol   =0.100E-04
     Ewald Coefficient =  0.27511
     Interpolation order =    4

--------------------------------------------------------------------------------
   3.  ATOMIC COORDINATES AND VELOCITIES
--------------------------------------------------------------------------------

ACE
 begin time read from input coords =  1100.000 ps

           Begin reading energy term weight changes/NMR restraints
 WEIGHT CHANGES:
 DUMPFREQ    100      0    0.000000    0.000000      0      0
                         ** No weight changes given **

 RESTRAINTS:
 Requested file redirections:
  DISANG    = run_-60_75.disang
  DUMPAVE   = run_-60_75.dat
 Restraints will be read from file: run_-60_75.disang
Here are comments from the DISANG input file:

                       Number of restraints read =     2

                  Done reading weight changes/NMR restraints

 Number of triangulated 3-point waters found:     1440

     Sum of charges from parm topology file =  -0.00000000
     Forcing neutrality...

--------------------------------------------------------------------------------
   4.  RESULTS
 NSTEP =      100   TIME(PS) =    1100.200  TEMP(K) =   307.40  PRESS =   -78.1
 Etot   =    -11078.0876  EKtot   =      2655.4438  EPtot      =    -13733.5314
 BOND   =         4.0418  ANGLE   =        12.1508  DIHED      =        13.1230
 1-4 NB =         2.2035  1-4 EEL =        44.8264  VDWAALS    =      2008.5777
 EELEC  =    -15818.6294  EHBOND  =         0.0000  RESTRAINT  =         0.1749
 EAMBER (non-restraint)  =    -13733.7062
 EKCMT  =      1333.1584  VIRIAL  =      1407.3159  VOLUME     =     43991.7882
                                                    Density    =         0.9847
 Ewald error estimate:   0.2752E-04
 ------------------------------------------------------------------------------

      A V E R A G E S   O V E R   50000 S T E P S

 NSTEP =    50000   TIME(PS) =    1200.000  TEMP(K) =   299.97  PRESS =     7.8
 Etot   =    -11172.6891  EKtot   =      2591.2760  EPtot      =    -13763.9651
 BOND   =         3.2771  ANGLE   =         9.7648  DIHED      =        13.5052
 1-4 NB =         2.8683  1-4 EEL =        45.6921  VDWAALS    =      2043.8865
 EELEC  =    -15883.6668  EHBOND  =         0.0000  RESTRAINT  =         0.7076
 EAMBER (non-restraint)  =    -13764.6727
 EKCMT  =      1292.5321  VIRIAL  =      1285.1111  VOLUME     =     44020.0546
                                                    Density    =         0.9841
 Ewald error estimate:   0.1750E-03
 ------------------------------------------------------------------------------

      R M S  F L U C T U A T I O N S

 NSTEP =    50000   TIME(PS) =    1200.000  TEMP(K) =     4.45  PRESS =   283.6
 Etot   =        63.6622  EKtot   =        38.4614  EPtot      =        51.6065
 BOND   =         1.5177  ANGLE   =         2.4355  DIHED      =         1.1493
 1-4 NB =         0.6742  1-4 EEL =         1.9207  VDWAALS    =        55.8496
 EELEC  =        83.5058  EHBOND  =         0.0000  RESTRAINT  =         0.6890
 EAMBER (non-restraint)  =        50.9175
 EKCMT  =        27.8926  VIRIAL  =       268.3050  VOLUME     =        95.9479
                                                    Density    =         0.0021
 Ewald error estimate:   0.1329E-03
 ------------------------------------------------------------------------------
