-------------------------------------------------------
          Amber 12 SANDER                              2012
          -------------------------------------------------------

  [-O]verwriting output

File Assignments:

 Here is the input file:

production run
 &cntrl
   ig=52757,
   irest=1, ntx=5,
   nstlim=50000, dt=0.002,
   ntc=2, ntf=1, tol=0.000001,
   ntb=2, nscm=50000,
   ntt=3, gamma_ln=2.0, temp0=300.0,
   ntp=1, taup=5.0,
   cut=10.0,
   ioutfm=1,
   ntpr=100, ntwx=100, ntwr=50000, iwrap=1,
   nmropt=1,
 /
 &wt
  type='DUMPFREQ', istep1=100,
 /
 &wt
  type='END',
 /
DISANG=run_-30_60.disang
DUMPAVE=run_-30_60.dat

--------------------------------------------------------------------------------
   1.  RESOURCE   USE:
--------------------------------------------------------------------------------

 getting new box info from bottom of inpcrd

 NATOM  =    4342 NTYPES =       9 NBONH =    4332 MBONA  =       9
 NTHETH =      25 MTHETA =      11 NPHIH =      43 MPHIA  =      24
 NHPARM =       0 NPARM  =       0 NNB   =    5859 NRES   =    1443
 NBONA  =       9 NTHETA =      11 NPHIA =      24 NUMBND =      13
 NUMANG =      21 NPTRA  =      20 NATYP =      10 NPHB   =       1
 IFBOX  =       1 NMXRS  =      10 IFCAP =       0 NEXTRA =       0
 NCOPY  =       0

     BOX TYPE: RECTILINEAR

--------------------------------------------------------------------------------
   2.  CONTROL  DATA  FOR  THE  RUN
--------------------------------------------------------------------------------

ACE

General flags:
     imin    =       0, nmropt  =       1

Nature and format of input:
     ntx     =       5, irest   =       1, ntrx    =       1

Nature and format of output:
     ntxo    =       1, ntpr    =     100, ntrx    =       1, ntwr    =   50000
     iwrap   =       1, ntwx    =     100, ntwv    =       0, ntwe    =       0
     ioutfm  =       1, ntwprt  =       0, idecomp =       0, rbornstat=      0

Potential function:
     ntf     =       1, ntb     =       2, igb     =       0, nsnb    =      25
     ipol    =       0, gbsa    =       0, iesp    =       0
     dielc   =   1.00000, cut     =  10.00000, intdiel =   1.00000

Frozen or restrained atoms:
     ibelly  =       0, ntr     =       0

Molecular dynamics:
     nstlim  =     50000, nscm    =     50000, nrespa  =         1
     t       =   0.00000, dt      =   0.00200, vlimit  =  20.00000

Langevin dynamics temperature regulation:
     ig      =   52757
     temp0   = 300.00000, tempi   =   0.00000, gamma_ln=   2.00000

Pressure regulation:
     ntp     =       1
     pres0   =   1.00000, comp    =  44.60000, taup    =   5.00000

SHAKE:
     ntc     =       2, jfastw  =       0
     tol     =   0.00000

NMR refinement options:
     iscale  =       0, noeskp  =       1, ipnlty  =       1, mxsub   =       1
     scalm   = 100.00000, pencut  =   0.10000, tausw   =   0.10000

Ewald parameters:
     verbose =       0, ew_type =       0, nbflag  =       1, use_pme =       1
     vdwmeth =       1, eedmeth =       1, netfrc  =       1
     Box X =   35.304   Box Y =   37.483   Box Z =   33.281
     Alpha =   90.000   Beta  =   90.000   Gamma =   90.000
     NFFT1 =   36       NFFT2 =   40       NFFT3 =   36
     Cutoff=   10.000   Tol   =0.100E-04
     Ewald Coefficient =  0.27511
     Interpolation order =    4

--------------------------------------------------------------------------------
   3.  ATOMIC COORDINATES AND VELOCITIES
--------------------------------------------------------------------------------

ACE
 begin time read from input coords =  1100.000 ps

           Begin reading energy term weight changes/NMR restraints
 WEIGHT CHANGES:
 DUMPFREQ    100      0    0.000000    0.000000      0      0
                         ** No weight changes given **

 RESTRAINTS:
 Requested file redirections:
  DISANG    = run_-30_60.disang
  DUMPAVE   = run_-30_60.dat
 Restraints will be read from file: run_-30_60.disang
Here are comments from the DISANG input file:

                       Number of restraints read =     2

                  Done reading weight changes/NMR restraints

 Number of triangulated 3-point waters found:     1440

     Sum of charges from parm topology file =  -0.00000000
     Forcing neutrality...

--------------------------------------------------------------------------------
   4.  RESULTS
 NSTEP =      100   TIME(PS) =    1100.200  TEMP(K) =   296.74  PRESS =   -34.7
 Etot   =    -11201.7770  EKtot   =      2563.3530  EPtot      =    -13765.1300
 BOND   =         5.5824  ANGLE   =        12.5712  DIHED      =        13.4283
 1-4 NB =         1.9900  1-4 EEL =        43.2603  VDWAALS    =      2053.2346
 EELEC  =    -15898.3771  EHBOND  =         0.0000  RESTRAINT  =         3.1803
 EAMBER (non-restraint)  =    -13768.3103
 EKCMT  =      1280.8542  VIRIAL  =      1313.8115  VOLUME     =     44033.9175
                                                    Density    =         0.9838
 Ewald error estimate:   0.2767E-03
 ------------------------------------------------------------------------------

      A V E R A G E S   O V E R   50000 S T E P S

 NSTEP =    50000   TIME(PS) =    1200.000  TEMP(K) =   300.78  PRESS =     2.9
 Etot   =    -11151.8858  EKtot   =      2598.2311  EPtot      =    -13750.1169
 BOND   =         3.6649  ANGLE   =        13.4014  DIHED      =        14.1110
 1-4 NB =         2.6669  1-4 EEL =        43.1208  VDWAALS    =      2042.7309
 EELEC  =    -15870.9520  EHBOND  =         0.0000  RESTRAINT  =         1.1393
 EAMBER (non-restraint)  =    -13751.2561
 EKCMT  =      1296.0544  VIRIAL  =      1293.2839  VOLUME     =     44056.4977
                                                    Density    =         0.9833
 Ewald error estimate:   0.1732E-03
 ------------------------------------------------------------------------------

      R M S  F L U C T U A T I O N S

 NSTEP =    50000   TIME(PS) =    1200.000  TEMP(K) =     4.51  PRESS =   282.2
 Etot   =        65.8925  EKtot   =        38.9820  EPtot      =        52.9796
 BOND   =         1.6513  ANGLE   =         2.7464  DIHED      =         1.4568
 1-4 NB =         0.6567  1-4 EEL =         1.6654  VDWAALS    =        55.6969
 EELEC  =        85.3582  EHBOND  =         0.0000  RESTRAINT  =         1.0172
 EAMBER (non-restraint)  =        51.9625
 EKCMT  =        27.8169  VIRIAL  =       267.7195  VOLUME     =        75.5093
                                                    Density    =         0.0017
 Ewald error estimate:   0.1323E-03
 ------------------------------------------------------------------------------
