-------------------------------------------------------
          Amber 12 SANDER                              2012
          -------------------------------------------------------

  [-O]verwriting output

File Assignments:

 Here is the input file:

production run
 &cntrl
   ig=196869,
   irest=1, ntx=5,
   nstlim=50000, dt=0.002,
   ntc=2, ntf=1, tol=0.000001,
   ntb=2, nscm=50000,
   ntt=3, gamma_ln=2.0, temp0=300.0,
   ntp=1, taup=5.0,
   cut=10.0,
   ioutfm=1,
   ntpr=100, ntwx=100, ntwr=50000, iwrap=1,
   nmropt=1,
 /
 &wt
  type='DUMPFREQ', istep1=100,
 /
 &wt
  type='END',
 /
DISANG=run_-90_105.disang
DUMPAVE=run_-90_105.dat

--------------------------------------------------------------------------------
   1.  RESOURCE   USE:
--------------------------------------------------------------------------------

 getting new box info from bottom of inpcrd

 NATOM  =    4342 NTYPES =       9 NBONH =    4332 MBONA  =       9
 NTHETH =      25 MTHETA =      11 NPHIH =      43 MPHIA  =      24
 NHPARM =       0 NPARM  =       0 NNB   =    5859 NRES   =    1443
 NBONA  =       9 NTHETA =      11 NPHIA =      24 NUMBND =      13
 NUMANG =      21 NPTRA  =      20 NATYP =      10 NPHB   =       1
 IFBOX  =       1 NMXRS  =      10 IFCAP =       0 NEXTRA =       0
 NCOPY  =       0

     BOX TYPE: RECTILINEAR

--------------------------------------------------------------------------------
   2.  CONTROL  DATA  FOR  THE  RUN
--------------------------------------------------------------------------------

ACE

General flags:
     imin    =       0, nmropt  =       1

Nature and format of input:
     ntx     =       5, irest   =       1, ntrx    =       1

Nature and format of output:
     ntxo    =       1, ntpr    =     100, ntrx    =       1, ntwr    =   50000
     iwrap   =       1, ntwx    =     100, ntwv    =       0, ntwe    =       0
     ioutfm  =       1, ntwprt  =       0, idecomp =       0, rbornstat=      0

Potential function:
     ntf     =       1, ntb     =       2, igb     =       0, nsnb    =      25
     ipol    =       0, gbsa    =       0, iesp    =       0
     dielc   =   1.00000, cut     =  10.00000, intdiel =   1.00000

Frozen or restrained atoms:
     ibelly  =       0, ntr     =       0

Molecular dynamics:
     nstlim  =     50000, nscm    =     50000, nrespa  =         1
     t       =   0.00000, dt      =   0.00200, vlimit  =  20.00000

Langevin dynamics temperature regulation:
     ig      =  196869
     temp0   = 300.00000, tempi   =   0.00000, gamma_ln=   2.00000

Pressure regulation:
     ntp     =       1
     pres0   =   1.00000, comp    =  44.60000, taup    =   5.00000

SHAKE:
     ntc     =       2, jfastw  =       0
     tol     =   0.00000

NMR refinement options:
     iscale  =       0, noeskp  =       1, ipnlty  =       1, mxsub   =       1
     scalm   = 100.00000, pencut  =   0.10000, tausw   =   0.10000

Ewald parameters:
     verbose =       0, ew_type =       0, nbflag  =       1, use_pme =       1
     vdwmeth =       1, eedmeth =       1, netfrc  =       1
     Box X =   35.307   Box Y =   37.486   Box Z =   33.283
     Alpha =   90.000   Beta  =   90.000   Gamma =   90.000
     NFFT1 =   36       NFFT2 =   40       NFFT3 =   36
     Cutoff=   10.000   Tol   =0.100E-04
     Ewald Coefficient =  0.27511
     Interpolation order =    4

--------------------------------------------------------------------------------
   3.  ATOMIC COORDINATES AND VELOCITIES
--------------------------------------------------------------------------------

ACE
 begin time read from input coords =  1100.000 ps

           Begin reading energy term weight changes/NMR restraints
 WEIGHT CHANGES:
 DUMPFREQ    100      0    0.000000    0.000000      0      0
                         ** No weight changes given **

 RESTRAINTS:
 Requested file redirections:
  DISANG    = run_-90_105.disang
  DUMPAVE   = run_-90_105.dat
 Restraints will be read from file: run_-90_105.disang
Here are comments from the DISANG input file:

                       Number of restraints read =     2

                  Done reading weight changes/NMR restraints

 Number of triangulated 3-point waters found:     1440

     Sum of charges from parm topology file =  -0.00000000
     Forcing neutrality...

--------------------------------------------------------------------------------
   4.  RESULTS
 NSTEP =      100   TIME(PS) =    1100.200  TEMP(K) =   299.56  PRESS =    84.8
 Etot   =    -11185.0330  EKtot   =      2587.6851  EPtot      =    -13772.7181
 BOND   =         1.6482  ANGLE   =         9.3841  DIHED      =        12.4754
 1-4 NB =         3.1726  1-4 EEL =        48.6468  VDWAALS    =      2043.2297
 EELEC  =    -15891.4333  EHBOND  =         0.0000  RESTRAINT  =         0.1584
 EAMBER (non-restraint)  =    -13772.8765
 EKCMT  =      1339.0849  VIRIAL  =      1258.4000  VOLUME     =     44073.4541
                                                    Density    =         0.9829
 Ewald error estimate:   0.8931E-05
 ------------------------------------------------------------------------------

      A V E R A G E S   O V E R   50000 S T E P S

 NSTEP =    50000   TIME(PS) =    1200.000  TEMP(K) =   300.44  PRESS =     2.5
 Etot   =    -11162.2197  EKtot   =      2595.3177  EPtot      =    -13757.5375
 BOND   =         3.2198  ANGLE   =         8.9161  DIHED      =        13.5691
 1-4 NB =         2.9219  1-4 EEL =        46.5976  VDWAALS    =      2040.8786
 EELEC  =    -15874.3148  EHBOND  =         0.0000  RESTRAINT  =         0.6742
 EAMBER (non-restraint)  =    -13758.2116
 EKCMT  =      1294.6755  VIRIAL  =      1292.2964  VOLUME     =     44069.8974
                                                    Density    =         0.9830
 Ewald error estimate:   0.1799E-03
 ------------------------------------------------------------------------------

      R M S  F L U C T U A T I O N S

 NSTEP =    50000   TIME(PS) =    1200.000  TEMP(K) =     4.66  PRESS =   291.1
 Etot   =        70.3422  EKtot   =        40.2460  EPtot      =        55.0082
 BOND   =         1.5075  ANGLE   =         2.3777  DIHED      =         1.1309
 1-4 NB =         0.7094  1-4 EEL =         2.0433  VDWAALS    =        56.2538
 EELEC  =        85.9913  EHBOND  =         0.0000  RESTRAINT  =         0.6698
 EAMBER (non-restraint)  =        54.3384
 EKCMT  =        27.5083  VIRIAL  =       275.7080  VOLUME     =        79.8077
                                                    Density    =         0.0018
 Ewald error estimate:   0.1369E-03
 ------------------------------------------------------------------------------
