-------------------------------------------------------
          Amber 12 SANDER                              2012
          -------------------------------------------------------

  [-O]verwriting output

File Assignments:

 Here is the input file:

production run
 &cntrl
   ig=753168,
   irest=1, ntx=5,
   nstlim=50000, dt=0.002,
   ntc=2, ntf=1, tol=0.000001,
   ntb=2, nscm=50000,
   ntt=3, gamma_ln=2.0, temp0=300.0,
   ntp=1, taup=5.0,
   cut=10.0,
   ioutfm=1,
   ntpr=100, ntwx=100, ntwr=50000, iwrap=1,
   nmropt=1,
 /
 &wt
  type='DUMPFREQ', istep1=100,
 /
 &wt
  type='END',
 /
DISANG=run_-180_15.disang
DUMPAVE=run_-180_15.dat

--------------------------------------------------------------------------------
   1.  RESOURCE   USE:
--------------------------------------------------------------------------------

 getting new box info from bottom of inpcrd

 NATOM  =    4342 NTYPES =       9 NBONH =    4332 MBONA  =       9
 NTHETH =      25 MTHETA =      11 NPHIH =      43 MPHIA  =      24
 NHPARM =       0 NPARM  =       0 NNB   =    5859 NRES   =    1443
 NBONA  =       9 NTHETA =      11 NPHIA =      24 NUMBND =      13
 NUMANG =      21 NPTRA  =      20 NATYP =      10 NPHB   =       1
 IFBOX  =       1 NMXRS  =      10 IFCAP =       0 NEXTRA =       0
 NCOPY  =       0

     BOX TYPE: RECTILINEAR

--------------------------------------------------------------------------------
   2.  CONTROL  DATA  FOR  THE  RUN
--------------------------------------------------------------------------------

ACE

General flags:
     imin    =       0, nmropt  =       1

Nature and format of input:
     ntx     =       5, irest   =       1, ntrx    =       1

Nature and format of output:
     ntxo    =       1, ntpr    =     100, ntrx    =       1, ntwr    =   50000
     iwrap   =       1, ntwx    =     100, ntwv    =       0, ntwe    =       0
     ioutfm  =       1, ntwprt  =       0, idecomp =       0, rbornstat=      0

Potential function:
     ntf     =       1, ntb     =       2, igb     =       0, nsnb    =      25
     ipol    =       0, gbsa    =       0, iesp    =       0
     dielc   =   1.00000, cut     =  10.00000, intdiel =   1.00000

Frozen or restrained atoms:
     ibelly  =       0, ntr     =       0

Molecular dynamics:
     nstlim  =     50000, nscm    =     50000, nrespa  =         1
     t       =   0.00000, dt      =   0.00200, vlimit  =  20.00000

Langevin dynamics temperature regulation:
     ig      =  753168
     temp0   = 300.00000, tempi   =   0.00000, gamma_ln=   2.00000

Pressure regulation:
     ntp     =       1
     pres0   =   1.00000, comp    =  44.60000, taup    =   5.00000

SHAKE:
     ntc     =       2, jfastw  =       0
     tol     =   0.00000

NMR refinement options:
     iscale  =       0, noeskp  =       1, ipnlty  =       1, mxsub   =       1
     scalm   = 100.00000, pencut  =   0.10000, tausw   =   0.10000

Ewald parameters:
     verbose =       0, ew_type =       0, nbflag  =       1, use_pme =       1
     vdwmeth =       1, eedmeth =       1, netfrc  =       1
     Box X =   35.292   Box Y =   37.470   Box Z =   33.269
     Alpha =   90.000   Beta  =   90.000   Gamma =   90.000
     NFFT1 =   36       NFFT2 =   40       NFFT3 =   36
     Cutoff=   10.000   Tol   =0.100E-04
     Ewald Coefficient =  0.27511
     Interpolation order =    4

--------------------------------------------------------------------------------
   3.  ATOMIC COORDINATES AND VELOCITIES
--------------------------------------------------------------------------------

ACE
 begin time read from input coords =  1100.000 ps

           Begin reading energy term weight changes/NMR restraints
 WEIGHT CHANGES:
 DUMPFREQ    100      0    0.000000    0.000000      0      0
                         ** No weight changes given **

 RESTRAINTS:
 Requested file redirections:
  DISANG    = run_-180_15.disang
  DUMPAVE   = run_-180_15.dat
 Restraints will be read from file: run_-180_15.disang
Here are comments from the DISANG input file:

                       Number of restraints read =     2

                  Done reading weight changes/NMR restraints

 Number of triangulated 3-point waters found:     1440

     Sum of charges from parm topology file =  -0.00000000
     Forcing neutrality...

--------------------------------------------------------------------------------
   4.  RESULTS
 NSTEP =      100   TIME(PS) =    1100.200  TEMP(K) =   305.17  PRESS =   269.9
 Etot   =    -11140.0750  EKtot   =      2636.1589  EPtot      =    -13776.2339
 BOND   =         4.0076  ANGLE   =         6.1935  DIHED      =        10.8876
 1-4 NB =         4.9077  1-4 EEL =        45.7071  VDWAALS    =      2104.5293
 EELEC  =    -15954.0004  EHBOND  =         0.0000  RESTRAINT  =         1.5337
 EAMBER (non-restraint)  =    -13777.7677
 EKCMT  =      1304.9286  VIRIAL  =      1048.5240  VOLUME     =     43993.6213
                                                    Density    =         0.9847
 Ewald error estimate:   0.5515E-04
 ------------------------------------------------------------------------------

      A V E R A G E S   O V E R   50000 S T E P S

 NSTEP =    50000   TIME(PS) =    1200.000  TEMP(K) =   299.85  PRESS =     2.3
 Etot   =    -11176.4216  EKtot   =      2590.2239  EPtot      =    -13766.6455
 BOND   =         3.4835  ANGLE   =         9.2836  DIHED      =        11.5994
 1-4 NB =         3.9925  1-4 EEL =        43.5645  VDWAALS    =      2046.2179
 EELEC  =    -15885.9260  EHBOND  =         0.0000  RESTRAINT  =         1.1393
 EAMBER (non-restraint)  =    -13767.7847
 EKCMT  =      1291.9910  VIRIAL  =      1289.7640  VOLUME     =     44058.2275
                                                    Density    =         0.9832
 Ewald error estimate:   0.1753E-03
 ------------------------------------------------------------------------------

      R M S  F L U C T U A T I O N S

 NSTEP =    50000   TIME(PS) =    1200.000  TEMP(K) =     4.50  PRESS =   287.2
 Etot   =        68.3995  EKtot   =        38.9048  EPtot      =        55.0427
 BOND   =         1.5652  ANGLE   =         2.3804  DIHED      =         1.2916
 1-4 NB =         0.8418  1-4 EEL =         1.8406  VDWAALS    =        57.1315
 EELEC  =        88.7963  EHBOND  =         0.0000  RESTRAINT  =         0.9396
 EAMBER (non-restraint)  =        54.1031
 EKCMT  =        27.3688  VIRIAL  =       271.7262  VOLUME     =        90.9044
                                                    Density    =         0.0020
 Ewald error estimate:   0.1305E-03
 ------------------------------------------------------------------------------
