-------------------------------------------------------
          Amber 12 SANDER                              2012
          -------------------------------------------------------

  [-O]verwriting output

File Assignments:

 Here is the input file:

production run
 &cntrl
   ig=392144,
   irest=1, ntx=5,
   nstlim=50000, dt=0.002,
   ntc=2, ntf=1, tol=0.000001,
   ntb=2, nscm=50000,
   ntt=3, gamma_ln=2.0, temp0=300.0,
   ntp=1, taup=5.0,
   cut=10.0,
   ioutfm=1,
   ntpr=100, ntwx=100, ntwr=50000, iwrap=1,
   nmropt=1,
 /
 &wt
  type='DUMPFREQ', istep1=100,
 /
 &wt
  type='END',
 /
DISANG=run_-135_30.disang
DUMPAVE=run_-135_30.dat

--------------------------------------------------------------------------------
   1.  RESOURCE   USE:
--------------------------------------------------------------------------------

 getting new box info from bottom of inpcrd

 NATOM  =    4342 NTYPES =       9 NBONH =    4332 MBONA  =       9
 NTHETH =      25 MTHETA =      11 NPHIH =      43 MPHIA  =      24
 NHPARM =       0 NPARM  =       0 NNB   =    5859 NRES   =    1443
 NBONA  =       9 NTHETA =      11 NPHIA =      24 NUMBND =      13
 NUMANG =      21 NPTRA  =      20 NATYP =      10 NPHB   =       1
 IFBOX  =       1 NMXRS  =      10 IFCAP =       0 NEXTRA =       0
 NCOPY  =       0

     BOX TYPE: RECTILINEAR

--------------------------------------------------------------------------------
   2.  CONTROL  DATA  FOR  THE  RUN
--------------------------------------------------------------------------------

ACE

General flags:
     imin    =       0, nmropt  =       1

Nature and format of input:
     ntx     =       5, irest   =       1, ntrx    =       1

Nature and format of output:
     ntxo    =       1, ntpr    =     100, ntrx    =       1, ntwr    =   50000
     iwrap   =       1, ntwx    =     100, ntwv    =       0, ntwe    =       0
     ioutfm  =       1, ntwprt  =       0, idecomp =       0, rbornstat=      0

Potential function:
     ntf     =       1, ntb     =       2, igb     =       0, nsnb    =      25
     ipol    =       0, gbsa    =       0, iesp    =       0
     dielc   =   1.00000, cut     =  10.00000, intdiel =   1.00000

Frozen or restrained atoms:
     ibelly  =       0, ntr     =       0

Molecular dynamics:
     nstlim  =     50000, nscm    =     50000, nrespa  =         1
     t       =   0.00000, dt      =   0.00200, vlimit  =  20.00000

Langevin dynamics temperature regulation:
     ig      =  392144
     temp0   = 300.00000, tempi   =   0.00000, gamma_ln=   2.00000

Pressure regulation:
     ntp     =       1
     pres0   =   1.00000, comp    =  44.60000, taup    =   5.00000

SHAKE:
     ntc     =       2, jfastw  =       0
     tol     =   0.00000

NMR refinement options:
     iscale  =       0, noeskp  =       1, ipnlty  =       1, mxsub   =       1
     scalm   = 100.00000, pencut  =   0.10000, tausw   =   0.10000

Ewald parameters:
     verbose =       0, ew_type =       0, nbflag  =       1, use_pme =       1
     vdwmeth =       1, eedmeth =       1, netfrc  =       1
     Box X =   35.309   Box Y =   37.488   Box Z =   33.285
     Alpha =   90.000   Beta  =   90.000   Gamma =   90.000
     NFFT1 =   36       NFFT2 =   40       NFFT3 =   36
     Cutoff=   10.000   Tol   =0.100E-04
     Ewald Coefficient =  0.27511
     Interpolation order =    4

--------------------------------------------------------------------------------
   3.  ATOMIC COORDINATES AND VELOCITIES
--------------------------------------------------------------------------------

ACE
 begin time read from input coords =  1100.000 ps

           Begin reading energy term weight changes/NMR restraints
 WEIGHT CHANGES:
 DUMPFREQ    100      0    0.000000    0.000000      0      0
                         ** No weight changes given **

 RESTRAINTS:
 Requested file redirections:
  DISANG    = run_-135_30.disang
  DUMPAVE   = run_-135_30.dat
 Restraints will be read from file: run_-135_30.disang
Here are comments from the DISANG input file:

                       Number of restraints read =     2

                  Done reading weight changes/NMR restraints

 Number of triangulated 3-point waters found:     1440

     Sum of charges from parm topology file =  -0.00000000
     Forcing neutrality...

--------------------------------------------------------------------------------
   4.  RESULTS
 NSTEP =      100   TIME(PS) =    1100.200  TEMP(K) =   305.79  PRESS =  -184.3
 Etot   =    -11152.5853  EKtot   =      2641.4855  EPtot      =    -13794.0707
 BOND   =         3.2784  ANGLE   =         8.1091  DIHED      =        13.1011
 1-4 NB =         4.2116  1-4 EEL =        43.9336  VDWAALS    =      2013.9561
 EELEC  =    -15881.2709  EHBOND  =         0.0000  RESTRAINT  =         0.6103
 EAMBER (non-restraint)  =    -13794.6810
 EKCMT  =      1332.3445  VIRIAL  =      1507.6242  VOLUME     =     44047.8372
                                                    Density    =         0.9835
 Ewald error estimate:   0.3196E-03
 ------------------------------------------------------------------------------

      A V E R A G E S   O V E R   50000 S T E P S

 NSTEP =    50000   TIME(PS) =    1200.000  TEMP(K) =   299.96  PRESS =     5.7
 Etot   =    -11185.9169  EKtot   =      2591.1272  EPtot      =    -13777.0441
 BOND   =         3.3534  ANGLE   =         9.6904  DIHED      =        11.4730
 1-4 NB =         3.7713  1-4 EEL =        44.1810  VDWAALS    =      2045.9305
 EELEC  =    -15896.0596  EHBOND  =         0.0000  RESTRAINT  =         0.6157
 EAMBER (non-restraint)  =    -13777.6599
 EKCMT  =      1291.9821  VIRIAL  =      1286.5235  VOLUME     =     43982.0196
                                                    Density    =         0.9849
 Ewald error estimate:   0.1783E-03
 ------------------------------------------------------------------------------

      R M S  F L U C T U A T I O N S

 NSTEP =    50000   TIME(PS) =    1200.000  TEMP(K) =     4.39  PRESS =   279.7
 Etot   =        66.5989  EKtot   =        37.8791  EPtot      =        55.0178
 BOND   =         1.5373  ANGLE   =         2.5261  DIHED      =         1.1616
 1-4 NB =         0.7949  1-4 EEL =         1.9323  VDWAALS    =        57.9860
 EELEC  =        91.9534  EHBOND  =         0.0000  RESTRAINT  =         0.6228
 EAMBER (non-restraint)  =        54.3950
 EKCMT  =        27.7759  VIRIAL  =       265.9001  VOLUME     =        94.3437
                                                    Density    =         0.0021
 Ewald error estimate:   0.1350E-03
 ------------------------------------------------------------------------------
