-------------------------------------------------------
          Amber 12 SANDER                              2012
          -------------------------------------------------------

  [-O]verwriting output

File Assignments:

 Here is the input file:

production run
 &cntrl
   ig=882204,
   irest=1, ntx=5,
   nstlim=50000, dt=0.002,
   ntc=2, ntf=1, tol=0.000001,
   ntb=2, nscm=50000,
   ntt=3, gamma_ln=2.0, temp0=300.0,
   ntp=1, taup=5.0,
   cut=10.0,
   ioutfm=1,
   ntpr=100, ntwx=100, ntwr=50000, iwrap=1,
   nmropt=1,
 /
 &wt
  type='DUMPFREQ', istep1=100,
 /
 &wt
  type='END',
 /
DISANG=run_-105_135.disang
DUMPAVE=run_-105_135.dat

--------------------------------------------------------------------------------
   1.  RESOURCE   USE:
--------------------------------------------------------------------------------

 getting new box info from bottom of inpcrd

 NATOM  =    4342 NTYPES =       9 NBONH =    4332 MBONA  =       9
 NTHETH =      25 MTHETA =      11 NPHIH =      43 MPHIA  =      24
 NHPARM =       0 NPARM  =       0 NNB   =    5859 NRES   =    1443
 NBONA  =       9 NTHETA =      11 NPHIA =      24 NUMBND =      13
 NUMANG =      21 NPTRA  =      20 NATYP =      10 NPHB   =       1
 IFBOX  =       1 NMXRS  =      10 IFCAP =       0 NEXTRA =       0
 NCOPY  =       0

     BOX TYPE: RECTILINEAR

--------------------------------------------------------------------------------
   2.  CONTROL  DATA  FOR  THE  RUN
--------------------------------------------------------------------------------

ACE

General flags:
     imin    =       0, nmropt  =       1

Nature and format of input:
     ntx     =       5, irest   =       1, ntrx    =       1

Nature and format of output:
     ntxo    =       1, ntpr    =     100, ntrx    =       1, ntwr    =   50000
     iwrap   =       1, ntwx    =     100, ntwv    =       0, ntwe    =       0
     ioutfm  =       1, ntwprt  =       0, idecomp =       0, rbornstat=      0

Potential function:
     ntf     =       1, ntb     =       2, igb     =       0, nsnb    =      25
     ipol    =       0, gbsa    =       0, iesp    =       0
     dielc   =   1.00000, cut     =  10.00000, intdiel =   1.00000

Frozen or restrained atoms:
     ibelly  =       0, ntr     =       0

Molecular dynamics:
     nstlim  =     50000, nscm    =     50000, nrespa  =         1
     t       =   0.00000, dt      =   0.00200, vlimit  =  20.00000

Langevin dynamics temperature regulation:
     ig      =  882204
     temp0   = 300.00000, tempi   =   0.00000, gamma_ln=   2.00000

Pressure regulation:
     ntp     =       1
     pres0   =   1.00000, comp    =  44.60000, taup    =   5.00000

SHAKE:
     ntc     =       2, jfastw  =       0
     tol     =   0.00000

NMR refinement options:
     iscale  =       0, noeskp  =       1, ipnlty  =       1, mxsub   =       1
     scalm   = 100.00000, pencut  =   0.10000, tausw   =   0.10000

Ewald parameters:
     verbose =       0, ew_type =       0, nbflag  =       1, use_pme =       1
     vdwmeth =       1, eedmeth =       1, netfrc  =       1
     Box X =   35.294   Box Y =   37.473   Box Z =   33.271
     Alpha =   90.000   Beta  =   90.000   Gamma =   90.000
     NFFT1 =   36       NFFT2 =   40       NFFT3 =   36
     Cutoff=   10.000   Tol   =0.100E-04
     Ewald Coefficient =  0.27511
     Interpolation order =    4

--------------------------------------------------------------------------------
   3.  ATOMIC COORDINATES AND VELOCITIES
--------------------------------------------------------------------------------

ACE
 begin time read from input coords =  1100.000 ps

           Begin reading energy term weight changes/NMR restraints
 WEIGHT CHANGES:
 DUMPFREQ    100      0    0.000000    0.000000      0      0
                         ** No weight changes given **

 RESTRAINTS:
 Requested file redirections:
  DISANG    = run_-105_135.disang
  DUMPAVE   = run_-105_135.dat
 Restraints will be read from file: run_-105_135.disang
Here are comments from the DISANG input file:

                       Number of restraints read =     2

                  Done reading weight changes/NMR restraints

 Number of triangulated 3-point waters found:     1440

     Sum of charges from parm topology file =  -0.00000000
     Forcing neutrality...

--------------------------------------------------------------------------------
   4.  RESULTS
 NSTEP =      100   TIME(PS) =    1100.200  TEMP(K) =   301.35  PRESS =   407.1
 Etot   =    -11207.4254  EKtot   =      2603.1973  EPtot      =    -13810.6227
 BOND   =         0.9503  ANGLE   =         6.4433  DIHED      =        13.3721
 1-4 NB =         3.6504  1-4 EEL =        49.8338  VDWAALS    =      2130.0864
 EELEC  =    -16015.3298  EHBOND  =         0.0000  RESTRAINT  =         0.3708
 EAMBER (non-restraint)  =    -13810.9935
 EKCMT  =      1282.7440  VIRIAL  =       895.8562  VOLUME     =     44019.5197
                                                    Density    =         0.9841
 Ewald error estimate:   0.4009E-06
 ------------------------------------------------------------------------------

      A V E R A G E S   O V E R   50000 S T E P S

 NSTEP =    50000   TIME(PS) =    1200.000  TEMP(K) =   300.03  PRESS =     2.2
 Etot   =    -11179.1708  EKtot   =      2591.7534  EPtot      =    -13770.9243
 BOND   =         3.1402  ANGLE   =         9.0639  DIHED      =        12.5433
 1-4 NB =         2.9548  1-4 EEL =        46.2698  VDWAALS    =      2044.1471
 EELEC  =    -15889.7000  EHBOND  =         0.0000  RESTRAINT  =         0.6567
 EAMBER (non-restraint)  =    -13771.5810
 EKCMT  =      1292.4819  VIRIAL  =      1290.4285  VOLUME     =     44030.5340
                                                    Density    =         0.9839
 Ewald error estimate:   0.1753E-03
 ------------------------------------------------------------------------------

      R M S  F L U C T U A T I O N S

 NSTEP =    50000   TIME(PS) =    1200.000  TEMP(K) =     4.67  PRESS =   288.1
 Etot   =        69.0907  EKtot   =        40.3482  EPtot      =        54.9285
 BOND   =         1.4660  ANGLE   =         2.3720  DIHED      =         1.1617
 1-4 NB =         0.6881  1-4 EEL =         2.1047  VDWAALS    =        56.9285
 EELEC  =        87.8333  EHBOND  =         0.0000  RESTRAINT  =         0.6426
 EAMBER (non-restraint)  =        54.2859
 EKCMT  =        27.8568  VIRIAL  =       272.2807  VOLUME     =        88.0166
                                                    Density    =         0.0020
 Ewald error estimate:   0.1313E-03
 ------------------------------------------------------------------------------
