-------------------------------------------------------
          Amber 12 SANDER                              2012
          -------------------------------------------------------

  [-O]verwriting output

File Assignments:

 Here is the input file:

production run
 &cntrl
   ig=770523,
   irest=1, ntx=5,
   nstlim=50000, dt=0.002,
   ntc=2, ntf=1, tol=0.000001,
   ntb=2, nscm=50000,
   ntt=3, gamma_ln=2.0, temp0=300.0,
   ntp=1, taup=5.0,
   cut=10.0,
   ioutfm=1,
   ntpr=100, ntwx=100, ntwr=50000, iwrap=1,
   nmropt=1,
 /
 &wt
  type='DUMPFREQ', istep1=100,
 /
 &wt
  type='END',
 /
DISANG=run_-45_105.disang
DUMPAVE=run_-45_105.dat

--------------------------------------------------------------------------------
   1.  RESOURCE   USE:
--------------------------------------------------------------------------------

 getting new box info from bottom of inpcrd

 NATOM  =    4342 NTYPES =       9 NBONH =    4332 MBONA  =       9
 NTHETH =      25 MTHETA =      11 NPHIH =      43 MPHIA  =      24
 NHPARM =       0 NPARM  =       0 NNB   =    5859 NRES   =    1443
 NBONA  =       9 NTHETA =      11 NPHIA =      24 NUMBND =      13
 NUMANG =      21 NPTRA  =      20 NATYP =      10 NPHB   =       1
 IFBOX  =       1 NMXRS  =      10 IFCAP =       0 NEXTRA =       0
 NCOPY  =       0

     BOX TYPE: RECTILINEAR

--------------------------------------------------------------------------------
   2.  CONTROL  DATA  FOR  THE  RUN
--------------------------------------------------------------------------------

ACE

General flags:
     imin    =       0, nmropt  =       1

Nature and format of input:
     ntx     =       5, irest   =       1, ntrx    =       1

Nature and format of output:
     ntxo    =       1, ntpr    =     100, ntrx    =       1, ntwr    =   50000
     iwrap   =       1, ntwx    =     100, ntwv    =       0, ntwe    =       0
     ioutfm  =       1, ntwprt  =       0, idecomp =       0, rbornstat=      0

Potential function:
     ntf     =       1, ntb     =       2, igb     =       0, nsnb    =      25
     ipol    =       0, gbsa    =       0, iesp    =       0
     dielc   =   1.00000, cut     =  10.00000, intdiel =   1.00000

Frozen or restrained atoms:
     ibelly  =       0, ntr     =       0

Molecular dynamics:
     nstlim  =     50000, nscm    =     50000, nrespa  =         1
     t       =   0.00000, dt      =   0.00200, vlimit  =  20.00000

Langevin dynamics temperature regulation:
     ig      =  770523
     temp0   = 300.00000, tempi   =   0.00000, gamma_ln=   2.00000

Pressure regulation:
     ntp     =       1
     pres0   =   1.00000, comp    =  44.60000, taup    =   5.00000

SHAKE:
     ntc     =       2, jfastw  =       0
     tol     =   0.00000

NMR refinement options:
     iscale  =       0, noeskp  =       1, ipnlty  =       1, mxsub   =       1
     scalm   = 100.00000, pencut  =   0.10000, tausw   =   0.10000

Ewald parameters:
     verbose =       0, ew_type =       0, nbflag  =       1, use_pme =       1
     vdwmeth =       1, eedmeth =       1, netfrc  =       1
     Box X =   35.269   Box Y =   37.446   Box Z =   33.248
     Alpha =   90.000   Beta  =   90.000   Gamma =   90.000
     NFFT1 =   36       NFFT2 =   40       NFFT3 =   36
     Cutoff=   10.000   Tol   =0.100E-04
     Ewald Coefficient =  0.27511
     Interpolation order =    4

--------------------------------------------------------------------------------
   3.  ATOMIC COORDINATES AND VELOCITIES
--------------------------------------------------------------------------------

ACE
 begin time read from input coords =  1100.000 ps

           Begin reading energy term weight changes/NMR restraints
 WEIGHT CHANGES:
 DUMPFREQ    100      0    0.000000    0.000000      0      0
                         ** No weight changes given **

 RESTRAINTS:
 Requested file redirections:
  DISANG    = run_-45_105.disang
  DUMPAVE   = run_-45_105.dat
 Restraints will be read from file: run_-45_105.disang
Here are comments from the DISANG input file:

                       Number of restraints read =     2

                  Done reading weight changes/NMR restraints

 Number of triangulated 3-point waters found:     1440

     Sum of charges from parm topology file =  -0.00000000
     Forcing neutrality...

--------------------------------------------------------------------------------
   4.  RESULTS
 NSTEP =      100   TIME(PS) =    1100.200  TEMP(K) =   300.69  PRESS =   327.0
 Etot   =    -11191.9467  EKtot   =      2597.4377  EPtot      =    -13789.3845
 BOND   =         5.8145  ANGLE   =         5.9419  DIHED      =        11.7607
 1-4 NB =         2.6077  1-4 EEL =        47.3356  VDWAALS    =      2092.0799
 EELEC  =    -15955.1955  EHBOND  =         0.0000  RESTRAINT  =         0.2707
 EAMBER (non-restraint)  =    -13789.6552
 EKCMT  =      1304.2581  VIRIAL  =       994.0930  VOLUME     =     43934.7333
                                                    Density    =         0.9860
 Ewald error estimate:   0.1227E-03
 ------------------------------------------------------------------------------

      A V E R A G E S   O V E R   50000 S T E P S

 NSTEP =    50000   TIME(PS) =    1200.000  TEMP(K) =   299.72  PRESS =     4.1
 Etot   =    -11189.9052  EKtot   =      2589.1000  EPtot      =    -13779.0052
 BOND   =         3.2428  ANGLE   =         9.4705  DIHED      =        13.3562
 1-4 NB =         2.8140  1-4 EEL =        46.6522  VDWAALS    =      2043.2674
 EELEC  =    -15898.5578  EHBOND  =         0.0000  RESTRAINT  =         0.7495
 EAMBER (non-restraint)  =    -13779.7547
 EKCMT  =      1290.9424  VIRIAL  =      1287.0099  VOLUME     =     43947.7986
                                                    Density    =         0.9857
 Ewald error estimate:   0.1746E-03
 ------------------------------------------------------------------------------

      R M S  F L U C T U A T I O N S

 NSTEP =    50000   TIME(PS) =    1200.000  TEMP(K) =     4.49  PRESS =   285.8
 Etot   =        65.7319  EKtot   =        38.8269  EPtot      =        53.3465
 BOND   =         1.4762  ANGLE   =         2.4165  DIHED      =         1.1614
 1-4 NB =         0.6599  1-4 EEL =         1.9327  VDWAALS    =        56.6281
 EELEC  =        86.3196  EHBOND  =         0.0000  RESTRAINT  =         0.7262
 EAMBER (non-restraint)  =        52.6203
 EKCMT  =        26.9261  VIRIAL  =       270.3461  VOLUME     =       109.4487
                                                    Density    =         0.0025
 Ewald error estimate:   0.1311E-03
 ------------------------------------------------------------------------------
