-------------------------------------------------------
          Amber 12 SANDER                              2012
          -------------------------------------------------------

  [-O]verwriting output

File Assignments:

 Here is the input file:

production run
 &cntrl
   ig=994553,
   irest=1, ntx=5,
   nstlim=50000, dt=0.002,
   ntc=2, ntf=1, tol=0.000001,
   ntb=2, nscm=50000,
   ntt=3, gamma_ln=2.0, temp0=300.0,
   ntp=1, taup=5.0,
   cut=10.0,
   ioutfm=1,
   ntpr=100, ntwx=100, ntwr=50000, iwrap=1,
   nmropt=1,
 /
 &wt
  type='DUMPFREQ', istep1=100,
 /
 &wt
  type='END',
 /
DISANG=run_-165_60.disang
DUMPAVE=run_-165_60.dat

--------------------------------------------------------------------------------
   1.  RESOURCE   USE:
--------------------------------------------------------------------------------

 getting new box info from bottom of inpcrd

 NATOM  =    4342 NTYPES =       9 NBONH =    4332 MBONA  =       9
 NTHETH =      25 MTHETA =      11 NPHIH =      43 MPHIA  =      24
 NHPARM =       0 NPARM  =       0 NNB   =    5859 NRES   =    1443
 NBONA  =       9 NTHETA =      11 NPHIA =      24 NUMBND =      13
 NUMANG =      21 NPTRA  =      20 NATYP =      10 NPHB   =       1
 IFBOX  =       1 NMXRS  =      10 IFCAP =       0 NEXTRA =       0
 NCOPY  =       0

     BOX TYPE: RECTILINEAR

--------------------------------------------------------------------------------
   2.  CONTROL  DATA  FOR  THE  RUN
--------------------------------------------------------------------------------

ACE

General flags:
     imin    =       0, nmropt  =       1

Nature and format of input:
     ntx     =       5, irest   =       1, ntrx    =       1

Nature and format of output:
     ntxo    =       1, ntpr    =     100, ntrx    =       1, ntwr    =   50000
     iwrap   =       1, ntwx    =     100, ntwv    =       0, ntwe    =       0
     ioutfm  =       1, ntwprt  =       0, idecomp =       0, rbornstat=      0

Potential function:
     ntf     =       1, ntb     =       2, igb     =       0, nsnb    =      25
     ipol    =       0, gbsa    =       0, iesp    =       0
     dielc   =   1.00000, cut     =  10.00000, intdiel =   1.00000

Frozen or restrained atoms:
     ibelly  =       0, ntr     =       0

Molecular dynamics:
     nstlim  =     50000, nscm    =     50000, nrespa  =         1
     t       =   0.00000, dt      =   0.00200, vlimit  =  20.00000

Langevin dynamics temperature regulation:
     ig      =  994553
     temp0   = 300.00000, tempi   =   0.00000, gamma_ln=   2.00000

Pressure regulation:
     ntp     =       1
     pres0   =   1.00000, comp    =  44.60000, taup    =   5.00000

SHAKE:
     ntc     =       2, jfastw  =       0
     tol     =   0.00000

NMR refinement options:
     iscale  =       0, noeskp  =       1, ipnlty  =       1, mxsub   =       1
     scalm   = 100.00000, pencut  =   0.10000, tausw   =   0.10000

Ewald parameters:
     verbose =       0, ew_type =       0, nbflag  =       1, use_pme =       1
     vdwmeth =       1, eedmeth =       1, netfrc  =       1
     Box X =   35.342   Box Y =   37.523   Box Z =   33.317
     Alpha =   90.000   Beta  =   90.000   Gamma =   90.000
     NFFT1 =   36       NFFT2 =   40       NFFT3 =   36
     Cutoff=   10.000   Tol   =0.100E-04
     Ewald Coefficient =  0.27511
     Interpolation order =    4

--------------------------------------------------------------------------------
   3.  ATOMIC COORDINATES AND VELOCITIES
--------------------------------------------------------------------------------

ACE
 begin time read from input coords =  1100.000 ps

           Begin reading energy term weight changes/NMR restraints
 WEIGHT CHANGES:
 DUMPFREQ    100      0    0.000000    0.000000      0      0
                         ** No weight changes given **

 RESTRAINTS:
 Requested file redirections:
  DISANG    = run_-165_60.disang
  DUMPAVE   = run_-165_60.dat
 Restraints will be read from file: run_-165_60.disang
Here are comments from the DISANG input file:

                       Number of restraints read =     2

                  Done reading weight changes/NMR restraints

 Number of triangulated 3-point waters found:     1440

     Sum of charges from parm topology file =  -0.00000000
     Forcing neutrality...

--------------------------------------------------------------------------------
   4.  RESULTS
 NSTEP =      100   TIME(PS) =    1100.200  TEMP(K) =   304.55  PRESS =   387.7
 Etot   =    -11106.4584  EKtot   =      2630.8043  EPtot      =    -13737.2627
 BOND   =         3.7026  ANGLE   =         9.9779  DIHED      =        12.5782
 1-4 NB =         3.7010  1-4 EEL =        44.0819  VDWAALS    =      2113.6295
 EELEC  =    -15925.0053  EHBOND  =         0.0000  RESTRAINT  =         0.0715
 EAMBER (non-restraint)  =    -13737.3342
 EKCMT  =      1312.0293  VIRIAL  =       942.0924  VOLUME     =     44189.2864
                                                    Density    =         0.9803
 Ewald error estimate:   0.1801E-03
 ------------------------------------------------------------------------------

      A V E R A G E S   O V E R   50000 S T E P S

 NSTEP =    50000   TIME(PS) =    1200.000  TEMP(K) =   299.87  PRESS =    -2.8
 Etot   =    -11178.8138  EKtot   =      2590.4084  EPtot      =    -13769.2221
 BOND   =         3.2949  ANGLE   =         8.9300  DIHED      =        12.8474
 1-4 NB =         3.4561  1-4 EEL =        44.8918  VDWAALS    =      2045.5998
 EELEC  =    -15888.9363  EHBOND  =         0.0000  RESTRAINT  =         0.6942
 EAMBER (non-restraint)  =    -13769.9163
 EKCMT  =      1292.1853  VIRIAL  =      1294.8493  VOLUME     =     44042.9706
                                                    Density    =         0.9836
 Ewald error estimate:   0.1752E-03
 ------------------------------------------------------------------------------

      R M S  F L U C T U A T I O N S

 NSTEP =    50000   TIME(PS) =    1200.000  TEMP(K) =     4.50  PRESS =   291.9
 Etot   =        64.5531  EKtot   =        38.8416  EPtot      =        52.8354
 BOND   =         1.5075  ANGLE   =         2.3372  DIHED      =         1.1524
 1-4 NB =         0.7528  1-4 EEL =         2.0265  VDWAALS    =        57.0879
 EELEC  =        85.4275  EHBOND  =         0.0000  RESTRAINT  =         0.6709
 EAMBER (non-restraint)  =        52.1645
 EKCMT  =        27.4132  VIRIAL  =       275.4086  VOLUME     =        94.8307
                                                    Density    =         0.0021
 Ewald error estimate:   0.1306E-03
 ------------------------------------------------------------------------------
