-------------------------------------------------------
          Amber 12 SANDER                              2012
          -------------------------------------------------------

  [-O]verwriting output

File Assignments:

 Here is the input file:

production run
 &cntrl
   ig=683683,
   irest=1, ntx=5,
   nstlim=50000, dt=0.002,
   ntc=2, ntf=1, tol=0.000001,
   ntb=2, nscm=50000,
   ntt=3, gamma_ln=2.0, temp0=300.0,
   ntp=1, taup=5.0,
   cut=10.0,
   ioutfm=1,
   ntpr=100, ntwx=100, ntwr=50000, iwrap=1,
   nmropt=1,
 /
 &wt
  type='DUMPFREQ', istep1=100,
 /
 &wt
  type='END',
 /
DISANG=run_-30_30.disang
DUMPAVE=run_-30_30.dat

--------------------------------------------------------------------------------
   1.  RESOURCE   USE:
--------------------------------------------------------------------------------

 getting new box info from bottom of inpcrd

 NATOM  =    4342 NTYPES =       9 NBONH =    4332 MBONA  =       9
 NTHETH =      25 MTHETA =      11 NPHIH =      43 MPHIA  =      24
 NHPARM =       0 NPARM  =       0 NNB   =    5859 NRES   =    1443
 NBONA  =       9 NTHETA =      11 NPHIA =      24 NUMBND =      13
 NUMANG =      21 NPTRA  =      20 NATYP =      10 NPHB   =       1
 IFBOX  =       1 NMXRS  =      10 IFCAP =       0 NEXTRA =       0
 NCOPY  =       0

     BOX TYPE: RECTILINEAR

--------------------------------------------------------------------------------
   2.  CONTROL  DATA  FOR  THE  RUN
--------------------------------------------------------------------------------

ACE

General flags:
     imin    =       0, nmropt  =       1

Nature and format of input:
     ntx     =       5, irest   =       1, ntrx    =       1

Nature and format of output:
     ntxo    =       1, ntpr    =     100, ntrx    =       1, ntwr    =   50000
     iwrap   =       1, ntwx    =     100, ntwv    =       0, ntwe    =       0
     ioutfm  =       1, ntwprt  =       0, idecomp =       0, rbornstat=      0

Potential function:
     ntf     =       1, ntb     =       2, igb     =       0, nsnb    =      25
     ipol    =       0, gbsa    =       0, iesp    =       0
     dielc   =   1.00000, cut     =  10.00000, intdiel =   1.00000

Frozen or restrained atoms:
     ibelly  =       0, ntr     =       0

Molecular dynamics:
     nstlim  =     50000, nscm    =     50000, nrespa  =         1
     t       =   0.00000, dt      =   0.00200, vlimit  =  20.00000

Langevin dynamics temperature regulation:
     ig      =  683683
     temp0   = 300.00000, tempi   =   0.00000, gamma_ln=   2.00000

Pressure regulation:
     ntp     =       1
     pres0   =   1.00000, comp    =  44.60000, taup    =   5.00000

SHAKE:
     ntc     =       2, jfastw  =       0
     tol     =   0.00000

NMR refinement options:
     iscale  =       0, noeskp  =       1, ipnlty  =       1, mxsub   =       1
     scalm   = 100.00000, pencut  =   0.10000, tausw   =   0.10000

Ewald parameters:
     verbose =       0, ew_type =       0, nbflag  =       1, use_pme =       1
     vdwmeth =       1, eedmeth =       1, netfrc  =       1
     Box X =   35.307   Box Y =   37.486   Box Z =   33.283
     Alpha =   90.000   Beta  =   90.000   Gamma =   90.000
     NFFT1 =   36       NFFT2 =   40       NFFT3 =   36
     Cutoff=   10.000   Tol   =0.100E-04
     Ewald Coefficient =  0.27511
     Interpolation order =    4

--------------------------------------------------------------------------------
   3.  ATOMIC COORDINATES AND VELOCITIES
--------------------------------------------------------------------------------

ACE
 begin time read from input coords =  1100.000 ps

           Begin reading energy term weight changes/NMR restraints
 WEIGHT CHANGES:
 DUMPFREQ    100      0    0.000000    0.000000      0      0
                         ** No weight changes given **

 RESTRAINTS:
 Requested file redirections:
  DISANG    = run_-30_30.disang
  DUMPAVE   = run_-30_30.dat
 Restraints will be read from file: run_-30_30.disang
Here are comments from the DISANG input file:

                       Number of restraints read =     2

                  Done reading weight changes/NMR restraints

 Number of triangulated 3-point waters found:     1440

     Sum of charges from parm topology file =  -0.00000000
     Forcing neutrality...

--------------------------------------------------------------------------------
   4.  RESULTS
 NSTEP =      100   TIME(PS) =    1100.200  TEMP(K) =   294.84  PRESS =  -264.3
 Etot   =    -11280.7113  EKtot   =      2546.9156  EPtot      =    -13827.6269
 BOND   =         3.6966  ANGLE   =        19.4881  DIHED      =        12.3166
 1-4 NB =         2.5250  1-4 EEL =        40.2386  VDWAALS    =      2023.3626
 EELEC  =    -15930.9701  EHBOND  =         0.0000  RESTRAINT  =         1.7157
 EAMBER (non-restraint)  =    -13829.3426
 EKCMT  =      1237.2139  VIRIAL  =      1488.6639  VOLUME     =     44065.3730
                                                    Density    =         0.9831
 Ewald error estimate:   0.6026E-04
 ------------------------------------------------------------------------------

      A V E R A G E S   O V E R   50000 S T E P S

 NSTEP =    50000   TIME(PS) =    1200.000  TEMP(K) =   299.61  PRESS =    -2.6
 Etot   =    -11179.0831  EKtot   =      2588.1327  EPtot      =    -13767.2158
 BOND   =         3.8167  ANGLE   =        14.9966  DIHED      =        12.3519
 1-4 NB =         2.7217  1-4 EEL =        42.0425  VDWAALS    =      2049.0489
 EELEC  =    -15893.7615  EHBOND  =         0.0000  RESTRAINT  =         1.5674
 EAMBER (non-restraint)  =    -13768.7832
 EKCMT  =      1291.2179  VIRIAL  =      1293.7293  VOLUME     =     44045.5536
                                                    Density    =         0.9835
 Ewald error estimate:   0.1749E-03
 ------------------------------------------------------------------------------

      R M S  F L U C T U A T I O N S

 NSTEP =    50000   TIME(PS) =    1200.000  TEMP(K) =     4.65  PRESS =   292.8
 Etot   =        67.8716  EKtot   =        40.1581  EPtot      =        54.6057
 BOND   =         1.7025  ANGLE   =         2.9602  DIHED      =         1.3947
 1-4 NB =         0.6494  1-4 EEL =         1.6526  VDWAALS    =        57.6120
 EELEC  =        87.9792  EHBOND  =         0.0000  RESTRAINT  =         1.1902
 EAMBER (non-restraint)  =        53.4155
 EKCMT  =        28.1385  VIRIAL  =       276.1251  VOLUME     =       120.0672
                                                    Density    =         0.0027
 Ewald error estimate:   0.1318E-03
 ------------------------------------------------------------------------------
