-------------------------------------------------------
          Amber 12 SANDER                              2012
          -------------------------------------------------------

  [-O]verwriting output

File Assignments:

 Here is the input file:

production run
 &cntrl
   ig=913325,
   irest=1, ntx=5,
   nstlim=50000, dt=0.002,
   ntc=2, ntf=1, tol=0.000001,
   ntb=2, nscm=50000,
   ntt=3, gamma_ln=2.0, temp0=300.0,
   ntp=1, taup=5.0,
   cut=10.0,
   ioutfm=1,
   ntpr=100, ntwx=100, ntwr=50000, iwrap=1,
   nmropt=1,
 /
 &wt
  type='DUMPFREQ', istep1=100,
 /
 &wt
  type='END',
 /
DISANG=run_-165_45.disang
DUMPAVE=run_-165_45.dat

--------------------------------------------------------------------------------
   1.  RESOURCE   USE:
--------------------------------------------------------------------------------

 getting new box info from bottom of inpcrd

 NATOM  =    4342 NTYPES =       9 NBONH =    4332 MBONA  =       9
 NTHETH =      25 MTHETA =      11 NPHIH =      43 MPHIA  =      24
 NHPARM =       0 NPARM  =       0 NNB   =    5859 NRES   =    1443
 NBONA  =       9 NTHETA =      11 NPHIA =      24 NUMBND =      13
 NUMANG =      21 NPTRA  =      20 NATYP =      10 NPHB   =       1
 IFBOX  =       1 NMXRS  =      10 IFCAP =       0 NEXTRA =       0
 NCOPY  =       0

     BOX TYPE: RECTILINEAR

--------------------------------------------------------------------------------
   2.  CONTROL  DATA  FOR  THE  RUN
--------------------------------------------------------------------------------

ACE

General flags:
     imin    =       0, nmropt  =       1

Nature and format of input:
     ntx     =       5, irest   =       1, ntrx    =       1

Nature and format of output:
     ntxo    =       1, ntpr    =     100, ntrx    =       1, ntwr    =   50000
     iwrap   =       1, ntwx    =     100, ntwv    =       0, ntwe    =       0
     ioutfm  =       1, ntwprt  =       0, idecomp =       0, rbornstat=      0

Potential function:
     ntf     =       1, ntb     =       2, igb     =       0, nsnb    =      25
     ipol    =       0, gbsa    =       0, iesp    =       0
     dielc   =   1.00000, cut     =  10.00000, intdiel =   1.00000

Frozen or restrained atoms:
     ibelly  =       0, ntr     =       0

Molecular dynamics:
     nstlim  =     50000, nscm    =     50000, nrespa  =         1
     t       =   0.00000, dt      =   0.00200, vlimit  =  20.00000

Langevin dynamics temperature regulation:
     ig      =  913325
     temp0   = 300.00000, tempi   =   0.00000, gamma_ln=   2.00000

Pressure regulation:
     ntp     =       1
     pres0   =   1.00000, comp    =  44.60000, taup    =   5.00000

SHAKE:
     ntc     =       2, jfastw  =       0
     tol     =   0.00000

NMR refinement options:
     iscale  =       0, noeskp  =       1, ipnlty  =       1, mxsub   =       1
     scalm   = 100.00000, pencut  =   0.10000, tausw   =   0.10000

Ewald parameters:
     verbose =       0, ew_type =       0, nbflag  =       1, use_pme =       1
     vdwmeth =       1, eedmeth =       1, netfrc  =       1
     Box X =   35.352   Box Y =   37.533   Box Z =   33.325
     Alpha =   90.000   Beta  =   90.000   Gamma =   90.000
     NFFT1 =   36       NFFT2 =   40       NFFT3 =   36
     Cutoff=   10.000   Tol   =0.100E-04
     Ewald Coefficient =  0.27511
     Interpolation order =    4

--------------------------------------------------------------------------------
   3.  ATOMIC COORDINATES AND VELOCITIES
--------------------------------------------------------------------------------

ACE
 begin time read from input coords =  1100.000 ps

           Begin reading energy term weight changes/NMR restraints
 WEIGHT CHANGES:
 DUMPFREQ    100      0    0.000000    0.000000      0      0
                         ** No weight changes given **

 RESTRAINTS:
 Requested file redirections:
  DISANG    = run_-165_45.disang
  DUMPAVE   = run_-165_45.dat
 Restraints will be read from file: run_-165_45.disang
Here are comments from the DISANG input file:

                       Number of restraints read =     2

                  Done reading weight changes/NMR restraints

 Number of triangulated 3-point waters found:     1440

     Sum of charges from parm topology file =  -0.00000000
     Forcing neutrality...

--------------------------------------------------------------------------------
   4.  RESULTS
 NSTEP =      100   TIME(PS) =    1100.200  TEMP(K) =   299.44  PRESS =   306.8
 Etot   =    -11194.1243  EKtot   =      2586.6909  EPtot      =    -13780.8152
 BOND   =         1.8151  ANGLE   =         9.7957  DIHED      =        12.8153
 1-4 NB =         3.4942  1-4 EEL =        45.4101  VDWAALS    =      2126.7633
 EELEC  =    -15980.9535  EHBOND  =         0.0000  RESTRAINT  =         0.0447
 EAMBER (non-restraint)  =    -13780.8599
 EKCMT  =      1306.2882  VIRIAL  =      1013.3572  VOLUME     =     44228.5606
                                                    Density    =         0.9794
 Ewald error estimate:   0.3226E-03
 ------------------------------------------------------------------------------

      A V E R A G E S   O V E R   50000 S T E P S

 NSTEP =    50000   TIME(PS) =    1200.000  TEMP(K) =   299.96  PRESS =    -3.8
 Etot   =    -11173.3276  EKtot   =      2591.1332  EPtot      =    -13764.4607
 BOND   =         3.3745  ANGLE   =         9.1977  DIHED      =        12.0744
 1-4 NB =         3.7815  1-4 EEL =        44.5507  VDWAALS    =      2046.1031
 EELEC  =    -15884.2600  EHBOND  =         0.0000  RESTRAINT  =         0.7173
 EAMBER (non-restraint)  =    -13765.1780
 EKCMT  =      1291.5730  VIRIAL  =      1295.2155  VOLUME     =     44073.2613
                                                    Density    =         0.9829
 Ewald error estimate:   0.1778E-03
 ------------------------------------------------------------------------------

      R M S  F L U C T U A T I O N S

 NSTEP =    50000   TIME(PS) =    1200.000  TEMP(K) =     4.38  PRESS =   279.1
 Etot   =        57.2623  EKtot   =        37.7988  EPtot      =        49.2597
 BOND   =         1.5606  ANGLE   =         2.4973  DIHED      =         1.1491
 1-4 NB =         0.7863  1-4 EEL =         1.9490  VDWAALS    =        56.0457
 EELEC  =        83.7290  EHBOND  =         0.0000  RESTRAINT  =         0.6853
 EAMBER (non-restraint)  =        48.5744
 EKCMT  =        27.2413  VIRIAL  =       264.8697  VOLUME     =        84.2844
                                                    Density    =         0.0019
 Ewald error estimate:   0.1340E-03
 ------------------------------------------------------------------------------
