-------------------------------------------------------
          Amber 12 SANDER                              2012
          -------------------------------------------------------

  [-O]verwriting output

File Assignments:

 Here is the input file:

production run
 &cntrl
   ig=357287,
   irest=1, ntx=5,
   nstlim=50000, dt=0.002,
   ntc=2, ntf=1, tol=0.000001,
   ntb=2, nscm=50000,
   ntt=3, gamma_ln=2.0, temp0=300.0,
   ntp=1, taup=5.0,
   cut=10.0,
   ioutfm=1,
   ntpr=100, ntwx=100, ntwr=50000, iwrap=1,
   nmropt=1,
 /
 &wt
  type='DUMPFREQ', istep1=100,
 /
 &wt
  type='END',
 /
DISANG=run_-150_90.disang
DUMPAVE=run_-150_90.dat

--------------------------------------------------------------------------------
   1.  RESOURCE   USE:
--------------------------------------------------------------------------------

 getting new box info from bottom of inpcrd

 NATOM  =    4342 NTYPES =       9 NBONH =    4332 MBONA  =       9
 NTHETH =      25 MTHETA =      11 NPHIH =      43 MPHIA  =      24
 NHPARM =       0 NPARM  =       0 NNB   =    5859 NRES   =    1443
 NBONA  =       9 NTHETA =      11 NPHIA =      24 NUMBND =      13
 NUMANG =      21 NPTRA  =      20 NATYP =      10 NPHB   =       1
 IFBOX  =       1 NMXRS  =      10 IFCAP =       0 NEXTRA =       0
 NCOPY  =       0

     BOX TYPE: RECTILINEAR

--------------------------------------------------------------------------------
   2.  CONTROL  DATA  FOR  THE  RUN
--------------------------------------------------------------------------------

ACE

General flags:
     imin    =       0, nmropt  =       1

Nature and format of input:
     ntx     =       5, irest   =       1, ntrx    =       1

Nature and format of output:
     ntxo    =       1, ntpr    =     100, ntrx    =       1, ntwr    =   50000
     iwrap   =       1, ntwx    =     100, ntwv    =       0, ntwe    =       0
     ioutfm  =       1, ntwprt  =       0, idecomp =       0, rbornstat=      0

Potential function:
     ntf     =       1, ntb     =       2, igb     =       0, nsnb    =      25
     ipol    =       0, gbsa    =       0, iesp    =       0
     dielc   =   1.00000, cut     =  10.00000, intdiel =   1.00000

Frozen or restrained atoms:
     ibelly  =       0, ntr     =       0

Molecular dynamics:
     nstlim  =     50000, nscm    =     50000, nrespa  =         1
     t       =   0.00000, dt      =   0.00200, vlimit  =  20.00000

Langevin dynamics temperature regulation:
     ig      =  357287
     temp0   = 300.00000, tempi   =   0.00000, gamma_ln=   2.00000

Pressure regulation:
     ntp     =       1
     pres0   =   1.00000, comp    =  44.60000, taup    =   5.00000

SHAKE:
     ntc     =       2, jfastw  =       0
     tol     =   0.00000

NMR refinement options:
     iscale  =       0, noeskp  =       1, ipnlty  =       1, mxsub   =       1
     scalm   = 100.00000, pencut  =   0.10000, tausw   =   0.10000

Ewald parameters:
     verbose =       0, ew_type =       0, nbflag  =       1, use_pme =       1
     vdwmeth =       1, eedmeth =       1, netfrc  =       1
     Box X =   35.342   Box Y =   37.523   Box Z =   33.316
     Alpha =   90.000   Beta  =   90.000   Gamma =   90.000
     NFFT1 =   36       NFFT2 =   40       NFFT3 =   36
     Cutoff=   10.000   Tol   =0.100E-04
     Ewald Coefficient =  0.27511
     Interpolation order =    4

--------------------------------------------------------------------------------
   3.  ATOMIC COORDINATES AND VELOCITIES
--------------------------------------------------------------------------------

ACE
 begin time read from input coords =  1100.000 ps

           Begin reading energy term weight changes/NMR restraints
 WEIGHT CHANGES:
 DUMPFREQ    100      0    0.000000    0.000000      0      0
                         ** No weight changes given **

 RESTRAINTS:
 Requested file redirections:
  DISANG    = run_-150_90.disang
  DUMPAVE   = run_-150_90.dat
 Restraints will be read from file: run_-150_90.disang
Here are comments from the DISANG input file:

                       Number of restraints read =     2

                  Done reading weight changes/NMR restraints

 Number of triangulated 3-point waters found:     1440

     Sum of charges from parm topology file =  -0.00000000
     Forcing neutrality...

--------------------------------------------------------------------------------
   4.  RESULTS
 NSTEP =      100   TIME(PS) =    1100.200  TEMP(K) =   310.85  PRESS =    58.4
 Etot   =    -11071.0623  EKtot   =      2685.2000  EPtot      =    -13756.2623
 BOND   =         2.2851  ANGLE   =         7.9450  DIHED      =        12.5620
 1-4 NB =         3.4217  1-4 EEL =        45.9906  VDWAALS    =      2058.7833
 EELEC  =    -15887.8980  EHBOND  =         0.0000  RESTRAINT  =         0.6479
 EAMBER (non-restraint)  =    -13756.9103
 EKCMT  =      1341.0532  VIRIAL  =      1285.3125  VOLUME     =     44201.6652
                                                    Density    =         0.9800
 Ewald error estimate:   0.1718E-03
 ------------------------------------------------------------------------------

      A V E R A G E S   O V E R   50000 S T E P S

 NSTEP =    50000   TIME(PS) =    1200.000  TEMP(K) =   299.47  PRESS =    -1.2
 Etot   =    -11192.6840  EKtot   =      2586.8771  EPtot      =    -13779.5611
 BOND   =         3.2894  ANGLE   =         8.9181  DIHED      =        13.4650
 1-4 NB =         2.9717  1-4 EEL =        45.1110  VDWAALS    =      2048.3759
 EELEC  =    -15902.2916  EHBOND  =         0.0000  RESTRAINT  =         0.5994
 EAMBER (non-restraint)  =    -13780.1605
 EKCMT  =      1291.4254  VIRIAL  =      1292.5935  VOLUME     =     44020.7736
                                                    Density    =         0.9841
 Ewald error estimate:   0.1749E-03
 ------------------------------------------------------------------------------

      R M S  F L U C T U A T I O N S

 NSTEP =    50000   TIME(PS) =    1200.000  TEMP(K) =     4.36  PRESS =   284.9
 Etot   =        62.5353  EKtot   =        37.6983  EPtot      =        51.9690
 BOND   =         1.5497  ANGLE   =         2.2971  DIHED      =         1.1709
 1-4 NB =         0.6876  1-4 EEL =         2.0859  VDWAALS    =        56.7764
 EELEC  =        86.1668  EHBOND  =         0.0000  RESTRAINT  =         0.6150
 EAMBER (non-restraint)  =        51.3540
 EKCMT  =        27.1861  VIRIAL  =       269.4983  VOLUME     =        70.0201
                                                    Density    =         0.0016
 Ewald error estimate:   0.1330E-03
 ------------------------------------------------------------------------------
