-------------------------------------------------------
          Amber 12 SANDER                              2012
          -------------------------------------------------------

  [-O]verwriting output

File Assignments:

 Here is the input file:

production run
 &cntrl
   ig=949184,
   irest=1, ntx=5,
   nstlim=50000, dt=0.002,
   ntc=2, ntf=1, tol=0.000001,
   ntb=2, nscm=50000,
   ntt=3, gamma_ln=2.0, temp0=300.0,
   ntp=1, taup=5.0,
   cut=10.0,
   ioutfm=1,
   ntpr=100, ntwx=100, ntwr=50000, iwrap=1,
   nmropt=1,
 /
 &wt
  type='DUMPFREQ', istep1=100,
 /
 &wt
  type='END',
 /
DISANG=run_-45_165.disang
DUMPAVE=run_-45_165.dat

--------------------------------------------------------------------------------
   1.  RESOURCE   USE:
--------------------------------------------------------------------------------

 getting new box info from bottom of inpcrd

 NATOM  =    4342 NTYPES =       9 NBONH =    4332 MBONA  =       9
 NTHETH =      25 MTHETA =      11 NPHIH =      43 MPHIA  =      24
 NHPARM =       0 NPARM  =       0 NNB   =    5859 NRES   =    1443
 NBONA  =       9 NTHETA =      11 NPHIA =      24 NUMBND =      13
 NUMANG =      21 NPTRA  =      20 NATYP =      10 NPHB   =       1
 IFBOX  =       1 NMXRS  =      10 IFCAP =       0 NEXTRA =       0
 NCOPY  =       0

     BOX TYPE: RECTILINEAR

--------------------------------------------------------------------------------
   2.  CONTROL  DATA  FOR  THE  RUN
--------------------------------------------------------------------------------

ACE

General flags:
     imin    =       0, nmropt  =       1

Nature and format of input:
     ntx     =       5, irest   =       1, ntrx    =       1

Nature and format of output:
     ntxo    =       1, ntpr    =     100, ntrx    =       1, ntwr    =   50000
     iwrap   =       1, ntwx    =     100, ntwv    =       0, ntwe    =       0
     ioutfm  =       1, ntwprt  =       0, idecomp =       0, rbornstat=      0

Potential function:
     ntf     =       1, ntb     =       2, igb     =       0, nsnb    =      25
     ipol    =       0, gbsa    =       0, iesp    =       0
     dielc   =   1.00000, cut     =  10.00000, intdiel =   1.00000

Frozen or restrained atoms:
     ibelly  =       0, ntr     =       0

Molecular dynamics:
     nstlim  =     50000, nscm    =     50000, nrespa  =         1
     t       =   0.00000, dt      =   0.00200, vlimit  =  20.00000

Langevin dynamics temperature regulation:
     ig      =  949184
     temp0   = 300.00000, tempi   =   0.00000, gamma_ln=   2.00000

Pressure regulation:
     ntp     =       1
     pres0   =   1.00000, comp    =  44.60000, taup    =   5.00000

SHAKE:
     ntc     =       2, jfastw  =       0
     tol     =   0.00000

NMR refinement options:
     iscale  =       0, noeskp  =       1, ipnlty  =       1, mxsub   =       1
     scalm   = 100.00000, pencut  =   0.10000, tausw   =   0.10000

Ewald parameters:
     verbose =       0, ew_type =       0, nbflag  =       1, use_pme =       1
     vdwmeth =       1, eedmeth =       1, netfrc  =       1
     Box X =   35.253   Box Y =   37.429   Box Z =   33.233
     Alpha =   90.000   Beta  =   90.000   Gamma =   90.000
     NFFT1 =   36       NFFT2 =   40       NFFT3 =   36
     Cutoff=   10.000   Tol   =0.100E-04
     Ewald Coefficient =  0.27511
     Interpolation order =    4

--------------------------------------------------------------------------------
   3.  ATOMIC COORDINATES AND VELOCITIES
--------------------------------------------------------------------------------

ACE
 begin time read from input coords =  1100.000 ps

           Begin reading energy term weight changes/NMR restraints
 WEIGHT CHANGES:
 DUMPFREQ    100      0    0.000000    0.000000      0      0
                         ** No weight changes given **

 RESTRAINTS:
 Requested file redirections:
  DISANG    = run_-45_165.disang
  DUMPAVE   = run_-45_165.dat
 Restraints will be read from file: run_-45_165.disang
Here are comments from the DISANG input file:

                       Number of restraints read =     2

                  Done reading weight changes/NMR restraints

 Number of triangulated 3-point waters found:     1440

     Sum of charges from parm topology file =  -0.00000000
     Forcing neutrality...

--------------------------------------------------------------------------------
   4.  RESULTS
 NSTEP =      100   TIME(PS) =    1100.200  TEMP(K) =   300.20  PRESS =   705.6
 Etot   =    -11144.7657  EKtot   =      2593.2067  EPtot      =    -13737.9724
 BOND   =         4.2956  ANGLE   =         6.4410  DIHED      =        10.8718
 1-4 NB =         2.9436  1-4 EEL =        46.5211  VDWAALS    =      2153.9152
 EELEC  =    -15964.7648  EHBOND  =         0.0000  RESTRAINT  =         1.8042
 EAMBER (non-restraint)  =    -13739.7766
 EKCMT  =      1310.2693  VIRIAL  =       642.0393  VOLUME     =     43863.1323
                                                    Density    =         0.9876
 Ewald error estimate:   0.4201E-03
 ------------------------------------------------------------------------------

      A V E R A G E S   O V E R   50000 S T E P S

 NSTEP =    50000   TIME(PS) =    1200.000  TEMP(K) =   300.33  PRESS =     5.8
 Etot   =    -11171.4909  EKtot   =      2594.3851  EPtot      =    -13765.8760
 BOND   =         3.3145  ANGLE   =         9.8422  DIHED      =        11.5592
 1-4 NB =         3.0164  1-4 EEL =        46.8815  VDWAALS    =      2040.1617
 EELEC  =    -15881.5354  EHBOND  =         0.0000  RESTRAINT  =         0.8840
 EAMBER (non-restraint)  =    -13766.7600
 EKCMT  =      1294.1902  VIRIAL  =      1288.6406  VOLUME     =     43974.3450
                                                    Density    =         0.9851
 Ewald error estimate:   0.1779E-03
 ------------------------------------------------------------------------------

      R M S  F L U C T U A T I O N S

 NSTEP =    50000   TIME(PS) =    1200.000  TEMP(K) =     4.60  PRESS =   285.5
 Etot   =        68.1385  EKtot   =        39.7177  EPtot      =        54.1028
 BOND   =         1.5439  ANGLE   =         2.5865  DIHED      =         1.2312
 1-4 NB =         0.6852  1-4 EEL =         1.9320  VDWAALS    =        55.8553
 EELEC  =        85.7628  EHBOND  =         0.0000  RESTRAINT  =         0.7919
 EAMBER (non-restraint)  =        53.3108
 EKCMT  =        27.9950  VIRIAL  =       269.3437  VOLUME     =       103.0854
                                                    Density    =         0.0023
 Ewald error estimate:   0.1363E-03
 ------------------------------------------------------------------------------
