-------------------------------------------------------
          Amber 12 SANDER                              2012
          -------------------------------------------------------

  [-O]verwriting output

File Assignments:

 Here is the input file:

production run
 &cntrl
   ig=703847,
   irest=1, ntx=5,
   nstlim=50000, dt=0.002,
   ntc=2, ntf=1, tol=0.000001,
   ntb=2, nscm=50000,
   ntt=3, gamma_ln=2.0, temp0=300.0,
   ntp=1, taup=5.0,
   cut=10.0,
   ioutfm=1,
   ntpr=100, ntwx=100, ntwr=50000, iwrap=1,
   nmropt=1,
 /
 &wt
  type='DUMPFREQ', istep1=100,
 /
 &wt
  type='END',
 /
DISANG=run_-75_105.disang
DUMPAVE=run_-75_105.dat

--------------------------------------------------------------------------------
   1.  RESOURCE   USE:
--------------------------------------------------------------------------------

 getting new box info from bottom of inpcrd

 NATOM  =    4342 NTYPES =       9 NBONH =    4332 MBONA  =       9
 NTHETH =      25 MTHETA =      11 NPHIH =      43 MPHIA  =      24
 NHPARM =       0 NPARM  =       0 NNB   =    5859 NRES   =    1443
 NBONA  =       9 NTHETA =      11 NPHIA =      24 NUMBND =      13
 NUMANG =      21 NPTRA  =      20 NATYP =      10 NPHB   =       1
 IFBOX  =       1 NMXRS  =      10 IFCAP =       0 NEXTRA =       0
 NCOPY  =       0

     BOX TYPE: RECTILINEAR

--------------------------------------------------------------------------------
   2.  CONTROL  DATA  FOR  THE  RUN
--------------------------------------------------------------------------------

ACE

General flags:
     imin    =       0, nmropt  =       1

Nature and format of input:
     ntx     =       5, irest   =       1, ntrx    =       1

Nature and format of output:
     ntxo    =       1, ntpr    =     100, ntrx    =       1, ntwr    =   50000
     iwrap   =       1, ntwx    =     100, ntwv    =       0, ntwe    =       0
     ioutfm  =       1, ntwprt  =       0, idecomp =       0, rbornstat=      0

Potential function:
     ntf     =       1, ntb     =       2, igb     =       0, nsnb    =      25
     ipol    =       0, gbsa    =       0, iesp    =       0
     dielc   =   1.00000, cut     =  10.00000, intdiel =   1.00000

Frozen or restrained atoms:
     ibelly  =       0, ntr     =       0

Molecular dynamics:
     nstlim  =     50000, nscm    =     50000, nrespa  =         1
     t       =   0.00000, dt      =   0.00200, vlimit  =  20.00000

Langevin dynamics temperature regulation:
     ig      =  703847
     temp0   = 300.00000, tempi   =   0.00000, gamma_ln=   2.00000

Pressure regulation:
     ntp     =       1
     pres0   =   1.00000, comp    =  44.60000, taup    =   5.00000

SHAKE:
     ntc     =       2, jfastw  =       0
     tol     =   0.00000

NMR refinement options:
     iscale  =       0, noeskp  =       1, ipnlty  =       1, mxsub   =       1
     scalm   = 100.00000, pencut  =   0.10000, tausw   =   0.10000

Ewald parameters:
     verbose =       0, ew_type =       0, nbflag  =       1, use_pme =       1
     vdwmeth =       1, eedmeth =       1, netfrc  =       1
     Box X =   35.311   Box Y =   37.491   Box Z =   33.287
     Alpha =   90.000   Beta  =   90.000   Gamma =   90.000
     NFFT1 =   36       NFFT2 =   40       NFFT3 =   36
     Cutoff=   10.000   Tol   =0.100E-04
     Ewald Coefficient =  0.27511
     Interpolation order =    4

--------------------------------------------------------------------------------
   3.  ATOMIC COORDINATES AND VELOCITIES
--------------------------------------------------------------------------------

ACE
 begin time read from input coords =  1100.000 ps

           Begin reading energy term weight changes/NMR restraints
 WEIGHT CHANGES:
 DUMPFREQ    100      0    0.000000    0.000000      0      0
                         ** No weight changes given **

 RESTRAINTS:
 Requested file redirections:
  DISANG    = run_-75_105.disang
  DUMPAVE   = run_-75_105.dat
 Restraints will be read from file: run_-75_105.disang
Here are comments from the DISANG input file:

                       Number of restraints read =     2

                  Done reading weight changes/NMR restraints

 Number of triangulated 3-point waters found:     1440

     Sum of charges from parm topology file =  -0.00000000
     Forcing neutrality...

--------------------------------------------------------------------------------
   4.  RESULTS
 NSTEP =      100   TIME(PS) =    1100.200  TEMP(K) =   299.69  PRESS =  -258.5
 Etot   =    -11159.1365  EKtot   =      2588.8589  EPtot      =    -13747.9955
 BOND   =         4.4838  ANGLE   =         8.9924  DIHED      =        12.9775
 1-4 NB =         2.2565  1-4 EEL =        46.1553  VDWAALS    =      2000.8844
 EELEC  =    -15824.8747  EHBOND  =         0.0000  RESTRAINT  =         1.1293
 EAMBER (non-restraint)  =    -13749.1247
 EKCMT  =      1304.0132  VIRIAL  =      1549.9375  VOLUME     =     44066.2994
                                                    Density    =         0.9831
 Ewald error estimate:   0.2109E-03
 ------------------------------------------------------------------------------

      A V E R A G E S   O V E R   50000 S T E P S

 NSTEP =    50000   TIME(PS) =    1200.000  TEMP(K) =   299.67  PRESS =    -0.9
 Etot   =    -11186.2887  EKtot   =      2588.6587  EPtot      =    -13774.9474
 BOND   =         3.1390  ANGLE   =         8.8452  DIHED      =        13.2171
 1-4 NB =         2.9305  1-4 EEL =        46.9364  VDWAALS    =      2045.1679
 EELEC  =    -15895.7972  EHBOND  =         0.0000  RESTRAINT  =         0.6137
 EAMBER (non-restraint)  =    -13775.5611
 EKCMT  =      1290.8634  VIRIAL  =      1291.6859  VOLUME     =     44032.5355
                                                    Density    =         0.9838
 Ewald error estimate:   0.1810E-03
 ------------------------------------------------------------------------------

      R M S  F L U C T U A T I O N S

 NSTEP =    50000   TIME(PS) =    1200.000  TEMP(K) =     4.48  PRESS =   289.5
 Etot   =        66.4414  EKtot   =        38.6920  EPtot      =        54.3201
 BOND   =         1.4405  ANGLE   =         2.3101  DIHED      =         1.1399
 1-4 NB =         0.6714  1-4 EEL =         2.0053  VDWAALS    =        57.2277
 EELEC  =        87.1435  EHBOND  =         0.0000  RESTRAINT  =         0.6270
 EAMBER (non-restraint)  =        53.6930
 EKCMT  =        27.8879  VIRIAL  =       274.5921  VOLUME     =        81.7344
                                                    Density    =         0.0018
 Ewald error estimate:   0.1363E-03
 ------------------------------------------------------------------------------
