-------------------------------------------------------
          Amber 12 SANDER                              2012
          -------------------------------------------------------

  [-O]verwriting output

File Assignments:

 Here is the input file:

production run
 &cntrl
   ig=32308,
   irest=1, ntx=5,
   nstlim=50000, dt=0.002,
   ntc=2, ntf=1, tol=0.000001,
   ntb=2, nscm=50000,
   ntt=3, gamma_ln=2.0, temp0=300.0,
   ntp=1, taup=5.0,
   cut=10.0,
   ioutfm=1,
   ntpr=100, ntwx=100, ntwr=50000, iwrap=1,
   nmropt=1,
 /
 &wt
  type='DUMPFREQ', istep1=100,
 /
 &wt
  type='END',
 /
DISANG=run_-180_30.disang
DUMPAVE=run_-180_30.dat

--------------------------------------------------------------------------------
   1.  RESOURCE   USE:
--------------------------------------------------------------------------------

 getting new box info from bottom of inpcrd

 NATOM  =    4342 NTYPES =       9 NBONH =    4332 MBONA  =       9
 NTHETH =      25 MTHETA =      11 NPHIH =      43 MPHIA  =      24
 NHPARM =       0 NPARM  =       0 NNB   =    5859 NRES   =    1443
 NBONA  =       9 NTHETA =      11 NPHIA =      24 NUMBND =      13
 NUMANG =      21 NPTRA  =      20 NATYP =      10 NPHB   =       1
 IFBOX  =       1 NMXRS  =      10 IFCAP =       0 NEXTRA =       0
 NCOPY  =       0

     BOX TYPE: RECTILINEAR

--------------------------------------------------------------------------------
   2.  CONTROL  DATA  FOR  THE  RUN
--------------------------------------------------------------------------------

ACE

General flags:
     imin    =       0, nmropt  =       1

Nature and format of input:
     ntx     =       5, irest   =       1, ntrx    =       1

Nature and format of output:
     ntxo    =       1, ntpr    =     100, ntrx    =       1, ntwr    =   50000
     iwrap   =       1, ntwx    =     100, ntwv    =       0, ntwe    =       0
     ioutfm  =       1, ntwprt  =       0, idecomp =       0, rbornstat=      0

Potential function:
     ntf     =       1, ntb     =       2, igb     =       0, nsnb    =      25
     ipol    =       0, gbsa    =       0, iesp    =       0
     dielc   =   1.00000, cut     =  10.00000, intdiel =   1.00000

Frozen or restrained atoms:
     ibelly  =       0, ntr     =       0

Molecular dynamics:
     nstlim  =     50000, nscm    =     50000, nrespa  =         1
     t       =   0.00000, dt      =   0.00200, vlimit  =  20.00000

Langevin dynamics temperature regulation:
     ig      =   32308
     temp0   = 300.00000, tempi   =   0.00000, gamma_ln=   2.00000

Pressure regulation:
     ntp     =       1
     pres0   =   1.00000, comp    =  44.60000, taup    =   5.00000

SHAKE:
     ntc     =       2, jfastw  =       0
     tol     =   0.00000

NMR refinement options:
     iscale  =       0, noeskp  =       1, ipnlty  =       1, mxsub   =       1
     scalm   = 100.00000, pencut  =   0.10000, tausw   =   0.10000

Ewald parameters:
     verbose =       0, ew_type =       0, nbflag  =       1, use_pme =       1
     vdwmeth =       1, eedmeth =       1, netfrc  =       1
     Box X =   35.298   Box Y =   37.476   Box Z =   33.274
     Alpha =   90.000   Beta  =   90.000   Gamma =   90.000
     NFFT1 =   36       NFFT2 =   40       NFFT3 =   36
     Cutoff=   10.000   Tol   =0.100E-04
     Ewald Coefficient =  0.27511
     Interpolation order =    4

--------------------------------------------------------------------------------
   3.  ATOMIC COORDINATES AND VELOCITIES
--------------------------------------------------------------------------------

ACE
 begin time read from input coords =  1100.000 ps

           Begin reading energy term weight changes/NMR restraints
 WEIGHT CHANGES:
 DUMPFREQ    100      0    0.000000    0.000000      0      0
                         ** No weight changes given **

 RESTRAINTS:
 Requested file redirections:
  DISANG    = run_-180_30.disang
  DUMPAVE   = run_-180_30.dat
 Restraints will be read from file: run_-180_30.disang
Here are comments from the DISANG input file:

                       Number of restraints read =     2

                  Done reading weight changes/NMR restraints

 Number of triangulated 3-point waters found:     1440

     Sum of charges from parm topology file =  -0.00000000
     Forcing neutrality...

--------------------------------------------------------------------------------
   4.  RESULTS
 NSTEP =      100   TIME(PS) =    1100.200  TEMP(K) =   298.76  PRESS =    75.1
 Etot   =    -11138.1506  EKtot   =      2580.7673  EPtot      =    -13718.9179
 BOND   =         2.4865  ANGLE   =         6.6436  DIHED      =        11.1691
 1-4 NB =         3.8715  1-4 EEL =        43.4624  VDWAALS    =      2039.0150
 EELEC  =    -15827.1890  EHBOND  =         0.0000  RESTRAINT  =         1.6230
 EAMBER (non-restraint)  =    -13720.5409
 EKCMT  =      1319.9443  VIRIAL  =      1248.5339  VOLUME     =     44020.7817
                                                    Density    =         0.9841
 Ewald error estimate:   0.3015E-03
 ------------------------------------------------------------------------------

      A V E R A G E S   O V E R   50000 S T E P S

 NSTEP =    50000   TIME(PS) =    1200.000  TEMP(K) =   299.31  PRESS =    -1.1
 Etot   =    -11194.5762  EKtot   =      2585.5255  EPtot      =    -13780.1017
 BOND   =         3.5766  ANGLE   =         9.3054  DIHED      =        12.1664
 1-4 NB =         4.0607  1-4 EEL =        44.0986  VDWAALS    =      2049.1597
 EELEC  =    -15903.5959  EHBOND  =         0.0000  RESTRAINT  =         1.1269
 EAMBER (non-restraint)  =    -13781.2286
 EKCMT  =      1290.5000  VIRIAL  =      1291.5425  VOLUME     =     44007.5937
                                                    Density    =         0.9844
 Ewald error estimate:   0.1761E-03
 ------------------------------------------------------------------------------

      R M S  F L U C T U A T I O N S

 NSTEP =    50000   TIME(PS) =    1200.000  TEMP(K) =     4.50  PRESS =   286.0
 Etot   =        65.5086  EKtot   =        38.8299  EPtot      =        54.1211
 BOND   =         1.5846  ANGLE   =         2.4109  DIHED      =         1.3073
 1-4 NB =         0.8367  1-4 EEL =         1.9205  VDWAALS    =        57.3632
 EELEC  =        89.4610  EHBOND  =         0.0000  RESTRAINT  =         0.9240
 EAMBER (non-restraint)  =        53.1970
 EKCMT  =        27.9587  VIRIAL  =       270.1863  VOLUME     =        72.9806
                                                    Density    =         0.0016
 Ewald error estimate:   0.1311E-03
 ------------------------------------------------------------------------------
