-------------------------------------------------------
          Amber 12 SANDER                              2012
          -------------------------------------------------------

  [-O]verwriting output

File Assignments:

 Here is the input file:

production run
 &cntrl
   ig=647638,
   irest=1, ntx=5,
   nstlim=50000, dt=0.002,
   ntc=2, ntf=1, tol=0.000001,
   ntb=2, nscm=50000,
   ntt=3, gamma_ln=2.0, temp0=300.0,
   ntp=1, taup=5.0,
   cut=10.0,
   ioutfm=1,
   ntpr=100, ntwx=100, ntwr=50000, iwrap=1,
   nmropt=1,
 /
 &wt
  type='DUMPFREQ', istep1=100,
 /
 &wt
  type='END',
 /
DISANG=run_-90_30.disang
DUMPAVE=run_-90_30.dat

--------------------------------------------------------------------------------
   1.  RESOURCE   USE:
--------------------------------------------------------------------------------

 getting new box info from bottom of inpcrd

 NATOM  =    4342 NTYPES =       9 NBONH =    4332 MBONA  =       9
 NTHETH =      25 MTHETA =      11 NPHIH =      43 MPHIA  =      24
 NHPARM =       0 NPARM  =       0 NNB   =    5859 NRES   =    1443
 NBONA  =       9 NTHETA =      11 NPHIA =      24 NUMBND =      13
 NUMANG =      21 NPTRA  =      20 NATYP =      10 NPHB   =       1
 IFBOX  =       1 NMXRS  =      10 IFCAP =       0 NEXTRA =       0
 NCOPY  =       0

     BOX TYPE: RECTILINEAR

--------------------------------------------------------------------------------
   2.  CONTROL  DATA  FOR  THE  RUN
--------------------------------------------------------------------------------

ACE

General flags:
     imin    =       0, nmropt  =       1

Nature and format of input:
     ntx     =       5, irest   =       1, ntrx    =       1

Nature and format of output:
     ntxo    =       1, ntpr    =     100, ntrx    =       1, ntwr    =   50000
     iwrap   =       1, ntwx    =     100, ntwv    =       0, ntwe    =       0
     ioutfm  =       1, ntwprt  =       0, idecomp =       0, rbornstat=      0

Potential function:
     ntf     =       1, ntb     =       2, igb     =       0, nsnb    =      25
     ipol    =       0, gbsa    =       0, iesp    =       0
     dielc   =   1.00000, cut     =  10.00000, intdiel =   1.00000

Frozen or restrained atoms:
     ibelly  =       0, ntr     =       0

Molecular dynamics:
     nstlim  =     50000, nscm    =     50000, nrespa  =         1
     t       =   0.00000, dt      =   0.00200, vlimit  =  20.00000

Langevin dynamics temperature regulation:
     ig      =  647638
     temp0   = 300.00000, tempi   =   0.00000, gamma_ln=   2.00000

Pressure regulation:
     ntp     =       1
     pres0   =   1.00000, comp    =  44.60000, taup    =   5.00000

SHAKE:
     ntc     =       2, jfastw  =       0
     tol     =   0.00000

NMR refinement options:
     iscale  =       0, noeskp  =       1, ipnlty  =       1, mxsub   =       1
     scalm   = 100.00000, pencut  =   0.10000, tausw   =   0.10000

Ewald parameters:
     verbose =       0, ew_type =       0, nbflag  =       1, use_pme =       1
     vdwmeth =       1, eedmeth =       1, netfrc  =       1
     Box X =   35.293   Box Y =   37.472   Box Z =   33.270
     Alpha =   90.000   Beta  =   90.000   Gamma =   90.000
     NFFT1 =   36       NFFT2 =   40       NFFT3 =   36
     Cutoff=   10.000   Tol   =0.100E-04
     Ewald Coefficient =  0.27511
     Interpolation order =    4

--------------------------------------------------------------------------------
   3.  ATOMIC COORDINATES AND VELOCITIES
--------------------------------------------------------------------------------

ACE
 begin time read from input coords =  1100.000 ps

           Begin reading energy term weight changes/NMR restraints
 WEIGHT CHANGES:
 DUMPFREQ    100      0    0.000000    0.000000      0      0
                         ** No weight changes given **

 RESTRAINTS:
 Requested file redirections:
  DISANG    = run_-90_30.disang
  DUMPAVE   = run_-90_30.dat
 Restraints will be read from file: run_-90_30.disang
Here are comments from the DISANG input file:

                       Number of restraints read =     2

                  Done reading weight changes/NMR restraints

 Number of triangulated 3-point waters found:     1440

     Sum of charges from parm topology file =  -0.00000000
     Forcing neutrality...

--------------------------------------------------------------------------------
   4.  RESULTS
 NSTEP =      100   TIME(PS) =    1100.200  TEMP(K) =   297.46  PRESS =  -208.2
 Etot   =    -11201.0817  EKtot   =      2569.5494  EPtot      =    -13770.6311
 BOND   =         5.1096  ANGLE   =         8.2403  DIHED      =        10.6793
 1-4 NB =         3.1382  1-4 EEL =        42.8951  VDWAALS    =      2000.2597
 EELEC  =    -15842.3389  EHBOND  =         0.0000  RESTRAINT  =         1.3855
 EAMBER (non-restraint)  =    -13772.0166
 EKCMT  =      1267.5932  VIRIAL  =      1465.4443  VOLUME     =     44008.2098
                                                    Density    =         0.9844
 Ewald error estimate:   0.1347E-03
 ------------------------------------------------------------------------------

      A V E R A G E S   O V E R   50000 S T E P S

 NSTEP =    50000   TIME(PS) =    1200.000  TEMP(K) =   300.07  PRESS =     3.4
 Etot   =    -11177.8206  EKtot   =      2592.1007  EPtot      =    -13769.9213
 BOND   =         3.4801  ANGLE   =         9.8361  DIHED      =        11.8705
 1-4 NB =         3.6927  1-4 EEL =        44.9674  VDWAALS    =      2046.6549
 EELEC  =    -15891.0671  EHBOND  =         0.0000  RESTRAINT  =         0.6440
 EAMBER (non-restraint)  =    -13770.5653
 EKCMT  =      1292.4210  VIRIAL  =      1289.1942  VOLUME     =     44062.3177
                                                    Density    =         0.9831
 Ewald error estimate:   0.1792E-03
 ------------------------------------------------------------------------------

      R M S  F L U C T U A T I O N S

 NSTEP =    50000   TIME(PS) =    1200.000  TEMP(K) =     4.56  PRESS =   276.7
 Etot   =        74.1075  EKtot   =        39.4002  EPtot      =        59.1758
 BOND   =         1.5949  ANGLE   =         2.5824  DIHED      =         1.2091
 1-4 NB =         0.7813  1-4 EEL =         1.8268  VDWAALS    =        56.0245
 EELEC  =        92.6509  EHBOND  =         0.0000  RESTRAINT  =         0.6388
 EAMBER (non-restraint)  =        58.5370
 EKCMT  =        27.7512  VIRIAL  =       262.6112  VOLUME     =        75.2798
                                                    Density    =         0.0017
 Ewald error estimate:   0.1356E-03
 ------------------------------------------------------------------------------
