-------------------------------------------------------
          Amber 12 SANDER                              2012
          -------------------------------------------------------

  [-O]verwriting output

File Assignments:

 Here is the input file:

production run
 &cntrl
   ig=387036,
   irest=1, ntx=5,
   nstlim=50000, dt=0.002,
   ntc=2, ntf=1, tol=0.000001,
   ntb=2, nscm=50000,
   ntt=3, gamma_ln=2.0, temp0=300.0,
   ntp=1, taup=5.0,
   cut=10.0,
   ioutfm=1,
   ntpr=100, ntwx=100, ntwr=50000, iwrap=1,
   nmropt=1,
 /
 &wt
  type='DUMPFREQ', istep1=100,
 /
 &wt
  type='END',
 /
DISANG=run_-30_75.disang
DUMPAVE=run_-30_75.dat

--------------------------------------------------------------------------------
   1.  RESOURCE   USE:
--------------------------------------------------------------------------------

 getting new box info from bottom of inpcrd

 NATOM  =    4342 NTYPES =       9 NBONH =    4332 MBONA  =       9
 NTHETH =      25 MTHETA =      11 NPHIH =      43 MPHIA  =      24
 NHPARM =       0 NPARM  =       0 NNB   =    5859 NRES   =    1443
 NBONA  =       9 NTHETA =      11 NPHIA =      24 NUMBND =      13
 NUMANG =      21 NPTRA  =      20 NATYP =      10 NPHB   =       1
 IFBOX  =       1 NMXRS  =      10 IFCAP =       0 NEXTRA =       0
 NCOPY  =       0

     BOX TYPE: RECTILINEAR

--------------------------------------------------------------------------------
   2.  CONTROL  DATA  FOR  THE  RUN
--------------------------------------------------------------------------------

ACE

General flags:
     imin    =       0, nmropt  =       1

Nature and format of input:
     ntx     =       5, irest   =       1, ntrx    =       1

Nature and format of output:
     ntxo    =       1, ntpr    =     100, ntrx    =       1, ntwr    =   50000
     iwrap   =       1, ntwx    =     100, ntwv    =       0, ntwe    =       0
     ioutfm  =       1, ntwprt  =       0, idecomp =       0, rbornstat=      0

Potential function:
     ntf     =       1, ntb     =       2, igb     =       0, nsnb    =      25
     ipol    =       0, gbsa    =       0, iesp    =       0
     dielc   =   1.00000, cut     =  10.00000, intdiel =   1.00000

Frozen or restrained atoms:
     ibelly  =       0, ntr     =       0

Molecular dynamics:
     nstlim  =     50000, nscm    =     50000, nrespa  =         1
     t       =   0.00000, dt      =   0.00200, vlimit  =  20.00000

Langevin dynamics temperature regulation:
     ig      =  387036
     temp0   = 300.00000, tempi   =   0.00000, gamma_ln=   2.00000

Pressure regulation:
     ntp     =       1
     pres0   =   1.00000, comp    =  44.60000, taup    =   5.00000

SHAKE:
     ntc     =       2, jfastw  =       0
     tol     =   0.00000

NMR refinement options:
     iscale  =       0, noeskp  =       1, ipnlty  =       1, mxsub   =       1
     scalm   = 100.00000, pencut  =   0.10000, tausw   =   0.10000

Ewald parameters:
     verbose =       0, ew_type =       0, nbflag  =       1, use_pme =       1
     vdwmeth =       1, eedmeth =       1, netfrc  =       1
     Box X =   35.309   Box Y =   37.488   Box Z =   33.285
     Alpha =   90.000   Beta  =   90.000   Gamma =   90.000
     NFFT1 =   36       NFFT2 =   40       NFFT3 =   36
     Cutoff=   10.000   Tol   =0.100E-04
     Ewald Coefficient =  0.27511
     Interpolation order =    4

--------------------------------------------------------------------------------
   3.  ATOMIC COORDINATES AND VELOCITIES
--------------------------------------------------------------------------------

ACE
 begin time read from input coords =  1100.000 ps

           Begin reading energy term weight changes/NMR restraints
 WEIGHT CHANGES:
 DUMPFREQ    100      0    0.000000    0.000000      0      0
                         ** No weight changes given **

 RESTRAINTS:
 Requested file redirections:
  DISANG    = run_-30_75.disang
  DUMPAVE   = run_-30_75.dat
 Restraints will be read from file: run_-30_75.disang
Here are comments from the DISANG input file:

                       Number of restraints read =     2

                  Done reading weight changes/NMR restraints

 Number of triangulated 3-point waters found:     1440

     Sum of charges from parm topology file =  -0.00000000
     Forcing neutrality...

--------------------------------------------------------------------------------
   4.  RESULTS
 NSTEP =      100   TIME(PS) =    1100.200  TEMP(K) =   306.55  PRESS =   163.7
 Etot   =    -11162.0283  EKtot   =      2648.1007  EPtot      =    -13810.1291
 BOND   =         3.1477  ANGLE   =        11.8765  DIHED      =        15.2440
 1-4 NB =         3.3088  1-4 EEL =        44.0808  VDWAALS    =      2073.8045
 EELEC  =    -15962.1823  EHBOND  =         0.0000  RESTRAINT  =         0.5909
 EAMBER (non-restraint)  =    -13810.7200
 EKCMT  =      1308.9508  VIRIAL  =      1153.2480  VOLUME     =     44055.1426
                                                    Density    =         0.9833
 Ewald error estimate:   0.5114E-03
 ------------------------------------------------------------------------------

      A V E R A G E S   O V E R   50000 S T E P S

 NSTEP =    50000   TIME(PS) =    1200.000  TEMP(K) =   300.42  PRESS =     1.5
 Etot   =    -11164.0933  EKtot   =      2595.1290  EPtot      =    -13759.2223
 BOND   =         3.5473  ANGLE   =        11.9837  DIHED      =        14.4182
 1-4 NB =         2.6644  1-4 EEL =        44.2612  VDWAALS    =      2042.7342
 EELEC  =    -15879.8646  EHBOND  =         0.0000  RESTRAINT  =         1.0334
 EAMBER (non-restraint)  =    -13760.2557
 EKCMT  =      1294.8489  VIRIAL  =      1293.4044  VOLUME     =     44029.9638
                                                    Density    =         0.9839
 Ewald error estimate:   0.1797E-03
 ------------------------------------------------------------------------------

      R M S  F L U C T U A T I O N S

 NSTEP =    50000   TIME(PS) =    1200.000  TEMP(K) =     4.62  PRESS =   280.0
 Etot   =        69.8716  EKtot   =        39.9243  EPtot      =        56.2606
 BOND   =         1.6328  ANGLE   =         2.6874  DIHED      =         1.2383
 1-4 NB =         0.6587  1-4 EEL =         1.7432  VDWAALS    =        56.4807
 EELEC  =        90.0188  EHBOND  =         0.0000  RESTRAINT  =         0.9290
 EAMBER (non-restraint)  =        55.3316
 EKCMT  =        27.7875  VIRIAL  =       264.7562  VOLUME     =        75.8667
                                                    Density    =         0.0017
 Ewald error estimate:   0.1357E-03
 ------------------------------------------------------------------------------
