-------------------------------------------------------
          Amber 12 SANDER                              2012
          -------------------------------------------------------

  [-O]verwriting output

File Assignments:

 Here is the input file:

production run
 &cntrl
   ig=342929,
   irest=1, ntx=5,
   nstlim=50000, dt=0.002,
   ntc=2, ntf=1, tol=0.000001,
   ntb=2, nscm=50000,
   ntt=3, gamma_ln=2.0, temp0=300.0,
   ntp=1, taup=5.0,
   cut=10.0,
   ioutfm=1,
   ntpr=100, ntwx=100, ntwr=50000, iwrap=1,
   nmropt=1,
 /
 &wt
  type='DUMPFREQ', istep1=100,
 /
 &wt
  type='END',
 /
DISANG=run_-105_120.disang
DUMPAVE=run_-105_120.dat

--------------------------------------------------------------------------------
   1.  RESOURCE   USE:
--------------------------------------------------------------------------------

 getting new box info from bottom of inpcrd

 NATOM  =    4342 NTYPES =       9 NBONH =    4332 MBONA  =       9
 NTHETH =      25 MTHETA =      11 NPHIH =      43 MPHIA  =      24
 NHPARM =       0 NPARM  =       0 NNB   =    5859 NRES   =    1443
 NBONA  =       9 NTHETA =      11 NPHIA =      24 NUMBND =      13
 NUMANG =      21 NPTRA  =      20 NATYP =      10 NPHB   =       1
 IFBOX  =       1 NMXRS  =      10 IFCAP =       0 NEXTRA =       0
 NCOPY  =       0

     BOX TYPE: RECTILINEAR

--------------------------------------------------------------------------------
   2.  CONTROL  DATA  FOR  THE  RUN
--------------------------------------------------------------------------------

ACE

General flags:
     imin    =       0, nmropt  =       1

Nature and format of input:
     ntx     =       5, irest   =       1, ntrx    =       1

Nature and format of output:
     ntxo    =       1, ntpr    =     100, ntrx    =       1, ntwr    =   50000
     iwrap   =       1, ntwx    =     100, ntwv    =       0, ntwe    =       0
     ioutfm  =       1, ntwprt  =       0, idecomp =       0, rbornstat=      0

Potential function:
     ntf     =       1, ntb     =       2, igb     =       0, nsnb    =      25
     ipol    =       0, gbsa    =       0, iesp    =       0
     dielc   =   1.00000, cut     =  10.00000, intdiel =   1.00000

Frozen or restrained atoms:
     ibelly  =       0, ntr     =       0

Molecular dynamics:
     nstlim  =     50000, nscm    =     50000, nrespa  =         1
     t       =   0.00000, dt      =   0.00200, vlimit  =  20.00000

Langevin dynamics temperature regulation:
     ig      =  342929
     temp0   = 300.00000, tempi   =   0.00000, gamma_ln=   2.00000

Pressure regulation:
     ntp     =       1
     pres0   =   1.00000, comp    =  44.60000, taup    =   5.00000

SHAKE:
     ntc     =       2, jfastw  =       0
     tol     =   0.00000

NMR refinement options:
     iscale  =       0, noeskp  =       1, ipnlty  =       1, mxsub   =       1
     scalm   = 100.00000, pencut  =   0.10000, tausw   =   0.10000

Ewald parameters:
     verbose =       0, ew_type =       0, nbflag  =       1, use_pme =       1
     vdwmeth =       1, eedmeth =       1, netfrc  =       1
     Box X =   35.346   Box Y =   37.527   Box Z =   33.320
     Alpha =   90.000   Beta  =   90.000   Gamma =   90.000
     NFFT1 =   36       NFFT2 =   40       NFFT3 =   36
     Cutoff=   10.000   Tol   =0.100E-04
     Ewald Coefficient =  0.27511
     Interpolation order =    4

--------------------------------------------------------------------------------
   3.  ATOMIC COORDINATES AND VELOCITIES
--------------------------------------------------------------------------------

ACE
 begin time read from input coords =  1100.000 ps

           Begin reading energy term weight changes/NMR restraints
 WEIGHT CHANGES:
 DUMPFREQ    100      0    0.000000    0.000000      0      0
                         ** No weight changes given **

 RESTRAINTS:
 Requested file redirections:
  DISANG    = run_-105_120.disang
  DUMPAVE   = run_-105_120.dat
 Restraints will be read from file: run_-105_120.disang
Here are comments from the DISANG input file:

                       Number of restraints read =     2

                  Done reading weight changes/NMR restraints

 Number of triangulated 3-point waters found:     1440

     Sum of charges from parm topology file =  -0.00000000
     Forcing neutrality...

--------------------------------------------------------------------------------
   4.  RESULTS
 NSTEP =      100   TIME(PS) =    1100.200  TEMP(K) =   292.78  PRESS =  -204.2
 Etot   =    -11158.0412  EKtot   =      2529.1667  EPtot      =    -13687.2079
 BOND   =         2.1086  ANGLE   =         7.5364  DIHED      =        12.5652
 1-4 NB =         2.9626  1-4 EEL =        47.6678  VDWAALS    =      1998.9665
 EELEC  =    -15759.4414  EHBOND  =         0.0000  RESTRAINT  =         0.4264
 EAMBER (non-restraint)  =    -13687.6343
 EKCMT  =      1235.8658  VIRIAL  =      1430.6517  VOLUME     =     44176.9027
                                                    Density    =         0.9806
 Ewald error estimate:   0.4585E-04
 ------------------------------------------------------------------------------

      A V E R A G E S   O V E R   50000 S T E P S

 NSTEP =    50000   TIME(PS) =    1200.000  TEMP(K) =   300.14  PRESS =    -1.7
 Etot   =    -11172.5020  EKtot   =      2592.7405  EPtot      =    -13765.2425
 BOND   =         3.1577  ANGLE   =         9.1670  DIHED      =        13.1891
 1-4 NB =         2.8868  1-4 EEL =        46.2679  VDWAALS    =      2042.9908
 EELEC  =    -15883.5900  EHBOND  =         0.0000  RESTRAINT  =         0.6883
 EAMBER (non-restraint)  =    -13765.9308
 EKCMT  =      1293.1955  VIRIAL  =      1294.8137  VOLUME     =     44041.6791
                                                    Density    =         0.9836
 Ewald error estimate:   0.1774E-03
 ------------------------------------------------------------------------------

      R M S  F L U C T U A T I O N S

 NSTEP =    50000   TIME(PS) =    1200.000  TEMP(K) =     4.51  PRESS =   294.2
 Etot   =        66.6334  EKtot   =        38.9647  EPtot      =        53.8524
 BOND   =         1.4749  ANGLE   =         2.3983  DIHED      =         1.1359
 1-4 NB =         0.6727  1-4 EEL =         2.0874  VDWAALS    =        59.3928
 EELEC  =        90.6765  EHBOND  =         0.0000  RESTRAINT  =         0.6752
 EAMBER (non-restraint)  =        53.1772
 EKCMT  =        27.7763  VIRIAL  =       279.0703  VOLUME     =        63.8655
                                                    Density    =         0.0014
 Ewald error estimate:   0.1323E-03
 ------------------------------------------------------------------------------
