-------------------------------------------------------
          Amber 12 SANDER                              2012
          -------------------------------------------------------

  [-O]verwriting output

File Assignments:

 Here is the input file:

production run
 &cntrl
   ig=43326,
   irest=1, ntx=5,
   nstlim=50000, dt=0.002,
   ntc=2, ntf=1, tol=0.000001,
   ntb=2, nscm=50000,
   ntt=3, gamma_ln=2.0, temp0=300.0,
   ntp=1, taup=5.0,
   cut=10.0,
   ioutfm=1,
   ntpr=100, ntwx=100, ntwr=50000, iwrap=1,
   nmropt=1,
 /
 &wt
  type='DUMPFREQ', istep1=100,
 /
 &wt
  type='END',
 /
DISANG=run_-15_60.disang
DUMPAVE=run_-15_60.dat

--------------------------------------------------------------------------------
   1.  RESOURCE   USE:
--------------------------------------------------------------------------------

 getting new box info from bottom of inpcrd

 NATOM  =    4342 NTYPES =       9 NBONH =    4332 MBONA  =       9
 NTHETH =      25 MTHETA =      11 NPHIH =      43 MPHIA  =      24
 NHPARM =       0 NPARM  =       0 NNB   =    5859 NRES   =    1443
 NBONA  =       9 NTHETA =      11 NPHIA =      24 NUMBND =      13
 NUMANG =      21 NPTRA  =      20 NATYP =      10 NPHB   =       1
 IFBOX  =       1 NMXRS  =      10 IFCAP =       0 NEXTRA =       0
 NCOPY  =       0

     BOX TYPE: RECTILINEAR

--------------------------------------------------------------------------------
   2.  CONTROL  DATA  FOR  THE  RUN
--------------------------------------------------------------------------------

ACE

General flags:
     imin    =       0, nmropt  =       1

Nature and format of input:
     ntx     =       5, irest   =       1, ntrx    =       1

Nature and format of output:
     ntxo    =       1, ntpr    =     100, ntrx    =       1, ntwr    =   50000
     iwrap   =       1, ntwx    =     100, ntwv    =       0, ntwe    =       0
     ioutfm  =       1, ntwprt  =       0, idecomp =       0, rbornstat=      0

Potential function:
     ntf     =       1, ntb     =       2, igb     =       0, nsnb    =      25
     ipol    =       0, gbsa    =       0, iesp    =       0
     dielc   =   1.00000, cut     =  10.00000, intdiel =   1.00000

Frozen or restrained atoms:
     ibelly  =       0, ntr     =       0

Molecular dynamics:
     nstlim  =     50000, nscm    =     50000, nrespa  =         1
     t       =   0.00000, dt      =   0.00200, vlimit  =  20.00000

Langevin dynamics temperature regulation:
     ig      =   43326
     temp0   = 300.00000, tempi   =   0.00000, gamma_ln=   2.00000

Pressure regulation:
     ntp     =       1
     pres0   =   1.00000, comp    =  44.60000, taup    =   5.00000

SHAKE:
     ntc     =       2, jfastw  =       0
     tol     =   0.00000

NMR refinement options:
     iscale  =       0, noeskp  =       1, ipnlty  =       1, mxsub   =       1
     scalm   = 100.00000, pencut  =   0.10000, tausw   =   0.10000

Ewald parameters:
     verbose =       0, ew_type =       0, nbflag  =       1, use_pme =       1
     vdwmeth =       1, eedmeth =       1, netfrc  =       1
     Box X =   35.353   Box Y =   37.535   Box Z =   33.327
     Alpha =   90.000   Beta  =   90.000   Gamma =   90.000
     NFFT1 =   36       NFFT2 =   40       NFFT3 =   36
     Cutoff=   10.000   Tol   =0.100E-04
     Ewald Coefficient =  0.27511
     Interpolation order =    4

--------------------------------------------------------------------------------
   3.  ATOMIC COORDINATES AND VELOCITIES
--------------------------------------------------------------------------------

ACE
 begin time read from input coords =  1100.000 ps

           Begin reading energy term weight changes/NMR restraints
 WEIGHT CHANGES:
 DUMPFREQ    100      0    0.000000    0.000000      0      0
                         ** No weight changes given **

 RESTRAINTS:
 Requested file redirections:
  DISANG    = run_-15_60.disang
  DUMPAVE   = run_-15_60.dat
 Restraints will be read from file: run_-15_60.disang
Here are comments from the DISANG input file:

                       Number of restraints read =     2

                  Done reading weight changes/NMR restraints

 Number of triangulated 3-point waters found:     1440

     Sum of charges from parm topology file =  -0.00000000
     Forcing neutrality...

--------------------------------------------------------------------------------
   4.  RESULTS
 NSTEP =      100   TIME(PS) =    1100.200  TEMP(K) =   302.20  PRESS = -1041.4
 Etot   =    -11161.8432  EKtot   =      2610.5167  EPtot      =    -13772.3599
 BOND   =         2.0934  ANGLE   =         8.9981  DIHED      =        14.8562
 1-4 NB =         2.3499  1-4 EEL =        44.1597  VDWAALS    =      1849.0249
 EELEC  =    -15695.7868  EHBOND  =         0.0000  RESTRAINT  =         1.9447
 EAMBER (non-restraint)  =    -13774.3045
 EKCMT  =      1291.9086  VIRIAL  =      2286.1490  VOLUME     =     44219.6674
                                                    Density    =         0.9796
 Ewald error estimate:   0.3297E-03
 ------------------------------------------------------------------------------

      A V E R A G E S   O V E R   50000 S T E P S

 NSTEP =    50000   TIME(PS) =    1200.000  TEMP(K) =   300.02  PRESS =    -2.8
 Etot   =    -11171.3094  EKtot   =      2591.6906  EPtot      =    -13763.0000
 BOND   =         3.5759  ANGLE   =        13.4448  DIHED      =        14.7041
 1-4 NB =         2.7072  1-4 EEL =        43.3570  VDWAALS    =      2042.6949
 EELEC  =    -15884.4794  EHBOND  =         0.0000  RESTRAINT  =         0.9954
 EAMBER (non-restraint)  =    -13763.9954
 EKCMT  =      1291.5959  VIRIAL  =      1294.3058  VOLUME     =     43996.2150
                                                    Density    =         0.9846
 Ewald error estimate:   0.1815E-03
 ------------------------------------------------------------------------------

      R M S  F L U C T U A T I O N S

 NSTEP =    50000   TIME(PS) =    1200.000  TEMP(K) =     4.63  PRESS =   284.1
 Etot   =        73.0709  EKtot   =        39.9922  EPtot      =        58.3311
 BOND   =         1.6085  ANGLE   =         2.7342  DIHED      =         1.3307
 1-4 NB =         0.6630  1-4 EEL =         1.7161  VDWAALS    =        57.7402
 EELEC  =        93.7367  EHBOND  =         0.0000  RESTRAINT  =         0.8953
 EAMBER (non-restraint)  =        57.4358
 EKCMT  =        28.3931  VIRIAL  =       269.1691  VOLUME     =        91.2762
                                                    Density    =         0.0020
 Ewald error estimate:   0.1372E-03
 ------------------------------------------------------------------------------
