-------------------------------------------------------
          Amber 12 SANDER                              2012
          -------------------------------------------------------

  [-O]verwriting output

File Assignments:

 Here is the input file:

production run
 &cntrl
   ig=844432,
   irest=1, ntx=5,
   nstlim=50000, dt=0.002,
   ntc=2, ntf=1, tol=0.000001,
   ntb=2, nscm=50000,
   ntt=3, gamma_ln=2.0, temp0=300.0,
   ntp=1, taup=5.0,
   cut=10.0,
   ioutfm=1,
   ntpr=100, ntwx=100, ntwr=50000, iwrap=1,
   nmropt=1,
 /
 &wt
  type='DUMPFREQ', istep1=100,
 /
 &wt
  type='END',
 /
DISANG=run_-45_75.disang
DUMPAVE=run_-45_75.dat

--------------------------------------------------------------------------------
   1.  RESOURCE   USE:
--------------------------------------------------------------------------------

 getting new box info from bottom of inpcrd

 NATOM  =    4342 NTYPES =       9 NBONH =    4332 MBONA  =       9
 NTHETH =      25 MTHETA =      11 NPHIH =      43 MPHIA  =      24
 NHPARM =       0 NPARM  =       0 NNB   =    5859 NRES   =    1443
 NBONA  =       9 NTHETA =      11 NPHIA =      24 NUMBND =      13
 NUMANG =      21 NPTRA  =      20 NATYP =      10 NPHB   =       1
 IFBOX  =       1 NMXRS  =      10 IFCAP =       0 NEXTRA =       0
 NCOPY  =       0

     BOX TYPE: RECTILINEAR

--------------------------------------------------------------------------------
   2.  CONTROL  DATA  FOR  THE  RUN
--------------------------------------------------------------------------------

ACE

General flags:
     imin    =       0, nmropt  =       1

Nature and format of input:
     ntx     =       5, irest   =       1, ntrx    =       1

Nature and format of output:
     ntxo    =       1, ntpr    =     100, ntrx    =       1, ntwr    =   50000
     iwrap   =       1, ntwx    =     100, ntwv    =       0, ntwe    =       0
     ioutfm  =       1, ntwprt  =       0, idecomp =       0, rbornstat=      0

Potential function:
     ntf     =       1, ntb     =       2, igb     =       0, nsnb    =      25
     ipol    =       0, gbsa    =       0, iesp    =       0
     dielc   =   1.00000, cut     =  10.00000, intdiel =   1.00000

Frozen or restrained atoms:
     ibelly  =       0, ntr     =       0

Molecular dynamics:
     nstlim  =     50000, nscm    =     50000, nrespa  =         1
     t       =   0.00000, dt      =   0.00200, vlimit  =  20.00000

Langevin dynamics temperature regulation:
     ig      =  844432
     temp0   = 300.00000, tempi   =   0.00000, gamma_ln=   2.00000

Pressure regulation:
     ntp     =       1
     pres0   =   1.00000, comp    =  44.60000, taup    =   5.00000

SHAKE:
     ntc     =       2, jfastw  =       0
     tol     =   0.00000

NMR refinement options:
     iscale  =       0, noeskp  =       1, ipnlty  =       1, mxsub   =       1
     scalm   = 100.00000, pencut  =   0.10000, tausw   =   0.10000

Ewald parameters:
     verbose =       0, ew_type =       0, nbflag  =       1, use_pme =       1
     vdwmeth =       1, eedmeth =       1, netfrc  =       1
     Box X =   35.310   Box Y =   37.489   Box Z =   33.286
     Alpha =   90.000   Beta  =   90.000   Gamma =   90.000
     NFFT1 =   36       NFFT2 =   40       NFFT3 =   36
     Cutoff=   10.000   Tol   =0.100E-04
     Ewald Coefficient =  0.27511
     Interpolation order =    4

--------------------------------------------------------------------------------
   3.  ATOMIC COORDINATES AND VELOCITIES
--------------------------------------------------------------------------------

ACE
 begin time read from input coords =  1100.000 ps

           Begin reading energy term weight changes/NMR restraints
 WEIGHT CHANGES:
 DUMPFREQ    100      0    0.000000    0.000000      0      0
                         ** No weight changes given **

 RESTRAINTS:
 Requested file redirections:
  DISANG    = run_-45_75.disang
  DUMPAVE   = run_-45_75.dat
 Restraints will be read from file: run_-45_75.disang
Here are comments from the DISANG input file:

                       Number of restraints read =     2

                  Done reading weight changes/NMR restraints

 Number of triangulated 3-point waters found:     1440

     Sum of charges from parm topology file =  -0.00000000
     Forcing neutrality...

--------------------------------------------------------------------------------
   4.  RESULTS
 NSTEP =      100   TIME(PS) =    1100.200  TEMP(K) =   302.52  PRESS =   299.2
 Etot   =    -11153.8769  EKtot   =      2613.2447  EPtot      =    -13767.1216
 BOND   =         3.9232  ANGLE   =        13.1734  DIHED      =        13.7291
 1-4 NB =         2.6122  1-4 EEL =        43.6267  VDWAALS    =      2101.6730
 EELEC  =    -15947.0054  EHBOND  =         0.0000  RESTRAINT  =         1.1461
 EAMBER (non-restraint)  =    -13768.2677
 EKCMT  =      1332.6387  VIRIAL  =      1048.0213  VOLUME     =     44062.8654
                                                    Density    =         0.9831
 Ewald error estimate:   0.5016E-03
 ------------------------------------------------------------------------------

      A V E R A G E S   O V E R   50000 S T E P S

 NSTEP =    50000   TIME(PS) =    1200.000  TEMP(K) =   299.90  PRESS =     0.6
 Etot   =    -11174.8708  EKtot   =      2590.5954  EPtot      =    -13765.4662
 BOND   =         3.4277  ANGLE   =        10.8440  DIHED      =        13.9214
 1-4 NB =         2.7500  1-4 EEL =        44.9095  VDWAALS    =      2042.6116
 EELEC  =    -15884.9112  EHBOND  =         0.0000  RESTRAINT  =         0.9810
 EAMBER (non-restraint)  =    -13766.4472
 EKCMT  =      1293.3037  VIRIAL  =      1292.7187  VOLUME     =     43998.1016
                                                    Density    =         0.9846
 Ewald error estimate:   0.1836E-03
 ------------------------------------------------------------------------------

      R M S  F L U C T U A T I O N S

 NSTEP =    50000   TIME(PS) =    1200.000  TEMP(K) =     4.83  PRESS =   285.6
 Etot   =        74.5421  EKtot   =        41.6952  EPtot      =        57.8282
 BOND   =         1.5703  ANGLE   =         2.6766  DIHED      =         1.2236
 1-4 NB =         0.6737  1-4 EEL =         1.7454  VDWAALS    =        57.0816
 EELEC  =        92.1242  EHBOND  =         0.0000  RESTRAINT  =         0.8737
 EAMBER (non-restraint)  =        56.9544
 EKCMT  =        29.0769  VIRIAL  =       269.7219  VOLUME     =        81.7149
                                                    Density    =         0.0018
 Ewald error estimate:   0.1409E-03
 ------------------------------------------------------------------------------
