-------------------------------------------------------
          Amber 12 SANDER                              2012
          -------------------------------------------------------

  [-O]verwriting output

File Assignments:

 Here is the input file:

production run
 &cntrl
   ig=652091,
   irest=1, ntx=5,
   nstlim=50000, dt=0.002,
   ntc=2, ntf=1, tol=0.000001,
   ntb=2, nscm=50000,
   ntt=3, gamma_ln=2.0, temp0=300.0,
   ntp=1, taup=5.0,
   cut=10.0,
   ioutfm=1,
   ntpr=100, ntwx=100, ntwr=50000, iwrap=1,
   nmropt=1,
 /
 &wt
  type='DUMPFREQ', istep1=100,
 /
 &wt
  type='END',
 /
DISANG=run_-120_45.disang
DUMPAVE=run_-120_45.dat

--------------------------------------------------------------------------------
   1.  RESOURCE   USE:
--------------------------------------------------------------------------------

 getting new box info from bottom of inpcrd

 NATOM  =    4342 NTYPES =       9 NBONH =    4332 MBONA  =       9
 NTHETH =      25 MTHETA =      11 NPHIH =      43 MPHIA  =      24
 NHPARM =       0 NPARM  =       0 NNB   =    5859 NRES   =    1443
 NBONA  =       9 NTHETA =      11 NPHIA =      24 NUMBND =      13
 NUMANG =      21 NPTRA  =      20 NATYP =      10 NPHB   =       1
 IFBOX  =       1 NMXRS  =      10 IFCAP =       0 NEXTRA =       0
 NCOPY  =       0

     BOX TYPE: RECTILINEAR

--------------------------------------------------------------------------------
   2.  CONTROL  DATA  FOR  THE  RUN
--------------------------------------------------------------------------------

ACE

General flags:
     imin    =       0, nmropt  =       1

Nature and format of input:
     ntx     =       5, irest   =       1, ntrx    =       1

Nature and format of output:
     ntxo    =       1, ntpr    =     100, ntrx    =       1, ntwr    =   50000
     iwrap   =       1, ntwx    =     100, ntwv    =       0, ntwe    =       0
     ioutfm  =       1, ntwprt  =       0, idecomp =       0, rbornstat=      0

Potential function:
     ntf     =       1, ntb     =       2, igb     =       0, nsnb    =      25
     ipol    =       0, gbsa    =       0, iesp    =       0
     dielc   =   1.00000, cut     =  10.00000, intdiel =   1.00000

Frozen or restrained atoms:
     ibelly  =       0, ntr     =       0

Molecular dynamics:
     nstlim  =     50000, nscm    =     50000, nrespa  =         1
     t       =   0.00000, dt      =   0.00200, vlimit  =  20.00000

Langevin dynamics temperature regulation:
     ig      =  652091
     temp0   = 300.00000, tempi   =   0.00000, gamma_ln=   2.00000

Pressure regulation:
     ntp     =       1
     pres0   =   1.00000, comp    =  44.60000, taup    =   5.00000

SHAKE:
     ntc     =       2, jfastw  =       0
     tol     =   0.00000

NMR refinement options:
     iscale  =       0, noeskp  =       1, ipnlty  =       1, mxsub   =       1
     scalm   = 100.00000, pencut  =   0.10000, tausw   =   0.10000

Ewald parameters:
     verbose =       0, ew_type =       0, nbflag  =       1, use_pme =       1
     vdwmeth =       1, eedmeth =       1, netfrc  =       1
     Box X =   35.276   Box Y =   37.453   Box Z =   33.254
     Alpha =   90.000   Beta  =   90.000   Gamma =   90.000
     NFFT1 =   36       NFFT2 =   40       NFFT3 =   36
     Cutoff=   10.000   Tol   =0.100E-04
     Ewald Coefficient =  0.27511
     Interpolation order =    4

--------------------------------------------------------------------------------
   3.  ATOMIC COORDINATES AND VELOCITIES
--------------------------------------------------------------------------------

ACE
 begin time read from input coords =  1100.000 ps

           Begin reading energy term weight changes/NMR restraints
 WEIGHT CHANGES:
 DUMPFREQ    100      0    0.000000    0.000000      0      0
                         ** No weight changes given **

 RESTRAINTS:
 Requested file redirections:
  DISANG    = run_-120_45.disang
  DUMPAVE   = run_-120_45.dat
 Restraints will be read from file: run_-120_45.disang
Here are comments from the DISANG input file:

                       Number of restraints read =     2

                  Done reading weight changes/NMR restraints

 Number of triangulated 3-point waters found:     1440

     Sum of charges from parm topology file =  -0.00000000
     Forcing neutrality...

--------------------------------------------------------------------------------
   4.  RESULTS
 NSTEP =      100   TIME(PS) =    1100.200  TEMP(K) =   293.16  PRESS =  -192.0
 Etot   =    -11175.1956  EKtot   =      2532.3927  EPtot      =    -13707.5883
 BOND   =         8.1272  ANGLE   =         8.9378  DIHED      =        11.2162
 1-4 NB =         3.7225  1-4 EEL =        43.5271  VDWAALS    =      1970.8350
 EELEC  =    -15754.4838  EHBOND  =         0.0000  RESTRAINT  =         0.5297
 EAMBER (non-restraint)  =    -13708.1180
 EKCMT  =      1269.3824  VIRIAL  =      1451.4818  VOLUME     =     43936.7328
                                                    Density    =         0.9860
 Ewald error estimate:   0.4184E-03
 ------------------------------------------------------------------------------

      A V E R A G E S   O V E R   50000 S T E P S

 NSTEP =    50000   TIME(PS) =    1200.000  TEMP(K) =   299.95  PRESS =     3.1
 Etot   =    -11180.9384  EKtot   =      2591.0996  EPtot      =    -13772.0380
 BOND   =         3.2609  ANGLE   =         9.5786  DIHED      =        12.6288
 1-4 NB =         3.4932  1-4 EEL =        44.7123  VDWAALS    =      2046.1773
 EELEC  =    -15892.5461  EHBOND  =         0.0000  RESTRAINT  =         0.6569
 EAMBER (non-restraint)  =    -13772.6950
 EKCMT  =      1291.3449  VIRIAL  =      1288.4243  VOLUME     =     44043.4665
                                                    Density    =         0.9836
 Ewald error estimate:   0.1775E-03
 ------------------------------------------------------------------------------

      R M S  F L U C T U A T I O N S

 NSTEP =    50000   TIME(PS) =    1200.000  TEMP(K) =     4.51  PRESS =   286.2
 Etot   =        66.3636  EKtot   =        38.9985  EPtot      =        54.6866
 BOND   =         1.5278  ANGLE   =         2.5204  DIHED      =         1.1808
 1-4 NB =         0.7566  1-4 EEL =         1.9265  VDWAALS    =        57.5819
 EELEC  =        89.3979  EHBOND  =         0.0000  RESTRAINT  =         0.6501
 EAMBER (non-restraint)  =        54.0365
 EKCMT  =        28.3963  VIRIAL  =       270.5960  VOLUME     =        77.4144
                                                    Density    =         0.0017
 Ewald error estimate:   0.1338E-03
 ------------------------------------------------------------------------------
