-------------------------------------------------------
          Amber 12 SANDER                              2012
          -------------------------------------------------------

  [-O]verwriting output

File Assignments:

 Here is the input file:

production run
 &cntrl
   ig=407620,
   irest=1, ntx=5,
   nstlim=50000, dt=0.002,
   ntc=2, ntf=1, tol=0.000001,
   ntb=2, nscm=50000,
   ntt=3, gamma_ln=2.0, temp0=300.0,
   ntp=1, taup=5.0,
   cut=10.0,
   ioutfm=1,
   ntpr=100, ntwx=100, ntwr=50000, iwrap=1,
   nmropt=1,
 /
 &wt
  type='DUMPFREQ', istep1=100,
 /
 &wt
  type='END',
 /
DISANG=run_-75_15.disang
DUMPAVE=run_-75_15.dat

--------------------------------------------------------------------------------
   1.  RESOURCE   USE:
--------------------------------------------------------------------------------

 getting new box info from bottom of inpcrd

 NATOM  =    4342 NTYPES =       9 NBONH =    4332 MBONA  =       9
 NTHETH =      25 MTHETA =      11 NPHIH =      43 MPHIA  =      24
 NHPARM =       0 NPARM  =       0 NNB   =    5859 NRES   =    1443
 NBONA  =       9 NTHETA =      11 NPHIA =      24 NUMBND =      13
 NUMANG =      21 NPTRA  =      20 NATYP =      10 NPHB   =       1
 IFBOX  =       1 NMXRS  =      10 IFCAP =       0 NEXTRA =       0
 NCOPY  =       0

     BOX TYPE: RECTILINEAR

--------------------------------------------------------------------------------
   2.  CONTROL  DATA  FOR  THE  RUN
--------------------------------------------------------------------------------

ACE

General flags:
     imin    =       0, nmropt  =       1

Nature and format of input:
     ntx     =       5, irest   =       1, ntrx    =       1

Nature and format of output:
     ntxo    =       1, ntpr    =     100, ntrx    =       1, ntwr    =   50000
     iwrap   =       1, ntwx    =     100, ntwv    =       0, ntwe    =       0
     ioutfm  =       1, ntwprt  =       0, idecomp =       0, rbornstat=      0

Potential function:
     ntf     =       1, ntb     =       2, igb     =       0, nsnb    =      25
     ipol    =       0, gbsa    =       0, iesp    =       0
     dielc   =   1.00000, cut     =  10.00000, intdiel =   1.00000

Frozen or restrained atoms:
     ibelly  =       0, ntr     =       0

Molecular dynamics:
     nstlim  =     50000, nscm    =     50000, nrespa  =         1
     t       =   0.00000, dt      =   0.00200, vlimit  =  20.00000

Langevin dynamics temperature regulation:
     ig      =  407620
     temp0   = 300.00000, tempi   =   0.00000, gamma_ln=   2.00000

Pressure regulation:
     ntp     =       1
     pres0   =   1.00000, comp    =  44.60000, taup    =   5.00000

SHAKE:
     ntc     =       2, jfastw  =       0
     tol     =   0.00000

NMR refinement options:
     iscale  =       0, noeskp  =       1, ipnlty  =       1, mxsub   =       1
     scalm   = 100.00000, pencut  =   0.10000, tausw   =   0.10000

Ewald parameters:
     verbose =       0, ew_type =       0, nbflag  =       1, use_pme =       1
     vdwmeth =       1, eedmeth =       1, netfrc  =       1
     Box X =   35.314   Box Y =   37.493   Box Z =   33.290
     Alpha =   90.000   Beta  =   90.000   Gamma =   90.000
     NFFT1 =   36       NFFT2 =   40       NFFT3 =   36
     Cutoff=   10.000   Tol   =0.100E-04
     Ewald Coefficient =  0.27511
     Interpolation order =    4

--------------------------------------------------------------------------------
   3.  ATOMIC COORDINATES AND VELOCITIES
--------------------------------------------------------------------------------

ACE
 begin time read from input coords =  1100.000 ps

           Begin reading energy term weight changes/NMR restraints
 WEIGHT CHANGES:
 DUMPFREQ    100      0    0.000000    0.000000      0      0
                         ** No weight changes given **

 RESTRAINTS:
 Requested file redirections:
  DISANG    = run_-75_15.disang
  DUMPAVE   = run_-75_15.dat
 Restraints will be read from file: run_-75_15.disang
Here are comments from the DISANG input file:

                       Number of restraints read =     2

                  Done reading weight changes/NMR restraints

 Number of triangulated 3-point waters found:     1440

     Sum of charges from parm topology file =  -0.00000000
     Forcing neutrality...

--------------------------------------------------------------------------------
   4.  RESULTS
 NSTEP =      100   TIME(PS) =    1100.200  TEMP(K) =   307.07  PRESS =   -87.0
 Etot   =    -11157.4228  EKtot   =      2652.5484  EPtot      =    -13809.9712
 BOND   =         1.0576  ANGLE   =        13.0421  DIHED      =         9.7080
 1-4 NB =         3.0217  1-4 EEL =        43.0371  VDWAALS    =      2035.5822
 EELEC  =    -15916.9490  EHBOND  =         0.0000  RESTRAINT  =         1.5291
 EAMBER (non-restraint)  =    -13811.5003
 EKCMT  =      1343.1124  VIRIAL  =      1425.8641  VOLUME     =     44077.0586
                                                    Density    =         0.9828
 Ewald error estimate:   0.1353E-04
 ------------------------------------------------------------------------------

      A V E R A G E S   O V E R   50000 S T E P S

 NSTEP =    50000   TIME(PS) =    1200.000  TEMP(K) =   299.75  PRESS =    -0.4
 Etot   =    -11187.9850  EKtot   =      2589.3733  EPtot      =    -13777.3584
 BOND   =         3.4360  ANGLE   =        10.1870  DIHED      =        11.0184
 1-4 NB =         3.5542  1-4 EEL =        44.7263  VDWAALS    =      2047.8473
 EELEC  =    -15898.7187  EHBOND  =         0.0000  RESTRAINT  =         0.5911
 EAMBER (non-restraint)  =    -13777.9495
 EKCMT  =      1292.7813  VIRIAL  =      1293.1665  VOLUME     =     44035.8920
                                                    Density    =         0.9837
 Ewald error estimate:   0.1765E-03
 ------------------------------------------------------------------------------

      R M S  F L U C T U A T I O N S

 NSTEP =    50000   TIME(PS) =    1200.000  TEMP(K) =     4.40  PRESS =   291.5
 Etot   =        65.9273  EKtot   =        37.9958  EPtot      =        54.5156
 BOND   =         1.5403  ANGLE   =         2.6128  DIHED      =         1.1583
 1-4 NB =         0.7564  1-4 EEL =         1.7624  VDWAALS    =        57.7467
 EELEC  =        88.5970  EHBOND  =         0.0000  RESTRAINT  =         0.5861
 EAMBER (non-restraint)  =        53.9295
 EKCMT  =        27.4545  VIRIAL  =       275.5655  VOLUME     =        98.2756
                                                    Density    =         0.0022
 Ewald error estimate:   0.1336E-03
 ------------------------------------------------------------------------------
