-------------------------------------------------------
          Amber 12 SANDER                              2012
          -------------------------------------------------------

  [-O]verwriting output

File Assignments:

 Here is the input file:

production run
 &cntrl
   ig=972949,
   irest=1, ntx=5,
   nstlim=50000, dt=0.002,
   ntc=2, ntf=1, tol=0.000001,
   ntb=2, nscm=50000,
   ntt=3, gamma_ln=2.0, temp0=300.0,
   ntp=1, taup=5.0,
   cut=10.0,
   ioutfm=1,
   ntpr=100, ntwx=100, ntwr=50000, iwrap=1,
   nmropt=1,
 /
 &wt
  type='DUMPFREQ', istep1=100,
 /
 &wt
  type='END',
 /
DISANG=run_-180_90.disang
DUMPAVE=run_-180_90.dat

--------------------------------------------------------------------------------
   1.  RESOURCE   USE:
--------------------------------------------------------------------------------

 getting new box info from bottom of inpcrd

 NATOM  =    4342 NTYPES =       9 NBONH =    4332 MBONA  =       9
 NTHETH =      25 MTHETA =      11 NPHIH =      43 MPHIA  =      24
 NHPARM =       0 NPARM  =       0 NNB   =    5859 NRES   =    1443
 NBONA  =       9 NTHETA =      11 NPHIA =      24 NUMBND =      13
 NUMANG =      21 NPTRA  =      20 NATYP =      10 NPHB   =       1
 IFBOX  =       1 NMXRS  =      10 IFCAP =       0 NEXTRA =       0
 NCOPY  =       0

     BOX TYPE: RECTILINEAR

--------------------------------------------------------------------------------
   2.  CONTROL  DATA  FOR  THE  RUN
--------------------------------------------------------------------------------

ACE

General flags:
     imin    =       0, nmropt  =       1

Nature and format of input:
     ntx     =       5, irest   =       1, ntrx    =       1

Nature and format of output:
     ntxo    =       1, ntpr    =     100, ntrx    =       1, ntwr    =   50000
     iwrap   =       1, ntwx    =     100, ntwv    =       0, ntwe    =       0
     ioutfm  =       1, ntwprt  =       0, idecomp =       0, rbornstat=      0

Potential function:
     ntf     =       1, ntb     =       2, igb     =       0, nsnb    =      25
     ipol    =       0, gbsa    =       0, iesp    =       0
     dielc   =   1.00000, cut     =  10.00000, intdiel =   1.00000

Frozen or restrained atoms:
     ibelly  =       0, ntr     =       0

Molecular dynamics:
     nstlim  =     50000, nscm    =     50000, nrespa  =         1
     t       =   0.00000, dt      =   0.00200, vlimit  =  20.00000

Langevin dynamics temperature regulation:
     ig      =  972949
     temp0   = 300.00000, tempi   =   0.00000, gamma_ln=   2.00000

Pressure regulation:
     ntp     =       1
     pres0   =   1.00000, comp    =  44.60000, taup    =   5.00000

SHAKE:
     ntc     =       2, jfastw  =       0
     tol     =   0.00000

NMR refinement options:
     iscale  =       0, noeskp  =       1, ipnlty  =       1, mxsub   =       1
     scalm   = 100.00000, pencut  =   0.10000, tausw   =   0.10000

Ewald parameters:
     verbose =       0, ew_type =       0, nbflag  =       1, use_pme =       1
     vdwmeth =       1, eedmeth =       1, netfrc  =       1
     Box X =   35.279   Box Y =   37.456   Box Z =   33.257
     Alpha =   90.000   Beta  =   90.000   Gamma =   90.000
     NFFT1 =   36       NFFT2 =   40       NFFT3 =   36
     Cutoff=   10.000   Tol   =0.100E-04
     Ewald Coefficient =  0.27511
     Interpolation order =    4

--------------------------------------------------------------------------------
   3.  ATOMIC COORDINATES AND VELOCITIES
--------------------------------------------------------------------------------

ACE
 begin time read from input coords =  1100.000 ps

           Begin reading energy term weight changes/NMR restraints
 WEIGHT CHANGES:
 DUMPFREQ    100      0    0.000000    0.000000      0      0
                         ** No weight changes given **

 RESTRAINTS:
 Requested file redirections:
  DISANG    = run_-180_90.disang
  DUMPAVE   = run_-180_90.dat
 Restraints will be read from file: run_-180_90.disang
Here are comments from the DISANG input file:

                       Number of restraints read =     2

                  Done reading weight changes/NMR restraints

 Number of triangulated 3-point waters found:     1440

     Sum of charges from parm topology file =  -0.00000000
     Forcing neutrality...

--------------------------------------------------------------------------------
   4.  RESULTS
 NSTEP =      100   TIME(PS) =    1100.200  TEMP(K) =   305.78  PRESS =   -69.8
 Etot   =    -11220.1200  EKtot   =      2641.4663  EPtot      =    -13861.5863
 BOND   =         4.0676  ANGLE   =         5.5766  DIHED      =        13.0159
 1-4 NB =         3.5880  1-4 EEL =        46.5449  VDWAALS    =      2087.2140
 EELEC  =    -16022.9408  EHBOND  =         0.0000  RESTRAINT  =         1.3474
 EAMBER (non-restraint)  =    -13862.9338
 EKCMT  =      1300.5238  VIRIAL  =      1366.7200  VOLUME     =     43950.5123
                                                    Density    =         0.9856
 Ewald error estimate:   0.2029E-03
 ------------------------------------------------------------------------------

      A V E R A G E S   O V E R   50000 S T E P S

 NSTEP =    50000   TIME(PS) =    1200.000  TEMP(K) =   299.66  PRESS =     3.8
 Etot   =    -11183.7308  EKtot   =      2588.5472  EPtot      =    -13772.2780
 BOND   =         3.3251  ANGLE   =         9.5328  DIHED      =        13.9954
 1-4 NB =         3.0482  1-4 EEL =        45.4827  VDWAALS    =      2048.0189
 EELEC  =    -15896.6190  EHBOND  =         0.0000  RESTRAINT  =         0.9379
 EAMBER (non-restraint)  =    -13773.2159
 EKCMT  =      1291.1092  VIRIAL  =      1287.5333  VOLUME     =     44021.0908
                                                    Density    =         0.9841
 Ewald error estimate:   0.1778E-03
 ------------------------------------------------------------------------------

      R M S  F L U C T U A T I O N S

 NSTEP =    50000   TIME(PS) =    1200.000  TEMP(K) =     4.59  PRESS =   276.8
 Etot   =        68.4859  EKtot   =        39.6703  EPtot      =        54.6205
 BOND   =         1.5275  ANGLE   =         2.5272  DIHED      =         1.2186
 1-4 NB =         0.6948  1-4 EEL =         2.0660  VDWAALS    =        55.1610
 EELEC  =        86.3225  EHBOND  =         0.0000  RESTRAINT  =         0.8305
 EAMBER (non-restraint)  =        53.7899
 EKCMT  =        27.1274  VIRIAL  =       262.2616  VOLUME     =        92.1767
                                                    Density    =         0.0021
 Ewald error estimate:   0.1336E-03
 ------------------------------------------------------------------------------
