-------------------------------------------------------
          Amber 12 SANDER                              2012
          -------------------------------------------------------

  [-O]verwriting output

File Assignments:

 Here is the input file:

production run
 &cntrl
   ig=182442,
   irest=1, ntx=5,
   nstlim=50000, dt=0.002,
   ntc=2, ntf=1, tol=0.000001,
   ntb=2, nscm=50000,
   ntt=3, gamma_ln=2.0, temp0=300.0,
   ntp=1, taup=5.0,
   cut=10.0,
   ioutfm=1,
   ntpr=100, ntwx=100, ntwr=50000, iwrap=1,
   nmropt=1,
 /
 &wt
  type='DUMPFREQ', istep1=100,
 /
 &wt
  type='END',
 /
DISANG=run_-60_90.disang
DUMPAVE=run_-60_90.dat

--------------------------------------------------------------------------------
   1.  RESOURCE   USE:
--------------------------------------------------------------------------------

 getting new box info from bottom of inpcrd

 NATOM  =    4342 NTYPES =       9 NBONH =    4332 MBONA  =       9
 NTHETH =      25 MTHETA =      11 NPHIH =      43 MPHIA  =      24
 NHPARM =       0 NPARM  =       0 NNB   =    5859 NRES   =    1443
 NBONA  =       9 NTHETA =      11 NPHIA =      24 NUMBND =      13
 NUMANG =      21 NPTRA  =      20 NATYP =      10 NPHB   =       1
 IFBOX  =       1 NMXRS  =      10 IFCAP =       0 NEXTRA =       0
 NCOPY  =       0

     BOX TYPE: RECTILINEAR

--------------------------------------------------------------------------------
   2.  CONTROL  DATA  FOR  THE  RUN
--------------------------------------------------------------------------------

ACE

General flags:
     imin    =       0, nmropt  =       1

Nature and format of input:
     ntx     =       5, irest   =       1, ntrx    =       1

Nature and format of output:
     ntxo    =       1, ntpr    =     100, ntrx    =       1, ntwr    =   50000
     iwrap   =       1, ntwx    =     100, ntwv    =       0, ntwe    =       0
     ioutfm  =       1, ntwprt  =       0, idecomp =       0, rbornstat=      0

Potential function:
     ntf     =       1, ntb     =       2, igb     =       0, nsnb    =      25
     ipol    =       0, gbsa    =       0, iesp    =       0
     dielc   =   1.00000, cut     =  10.00000, intdiel =   1.00000

Frozen or restrained atoms:
     ibelly  =       0, ntr     =       0

Molecular dynamics:
     nstlim  =     50000, nscm    =     50000, nrespa  =         1
     t       =   0.00000, dt      =   0.00200, vlimit  =  20.00000

Langevin dynamics temperature regulation:
     ig      =  182442
     temp0   = 300.00000, tempi   =   0.00000, gamma_ln=   2.00000

Pressure regulation:
     ntp     =       1
     pres0   =   1.00000, comp    =  44.60000, taup    =   5.00000

SHAKE:
     ntc     =       2, jfastw  =       0
     tol     =   0.00000

NMR refinement options:
     iscale  =       0, noeskp  =       1, ipnlty  =       1, mxsub   =       1
     scalm   = 100.00000, pencut  =   0.10000, tausw   =   0.10000

Ewald parameters:
     verbose =       0, ew_type =       0, nbflag  =       1, use_pme =       1
     vdwmeth =       1, eedmeth =       1, netfrc  =       1
     Box X =   35.293   Box Y =   37.471   Box Z =   33.270
     Alpha =   90.000   Beta  =   90.000   Gamma =   90.000
     NFFT1 =   36       NFFT2 =   40       NFFT3 =   36
     Cutoff=   10.000   Tol   =0.100E-04
     Ewald Coefficient =  0.27511
     Interpolation order =    4

--------------------------------------------------------------------------------
   3.  ATOMIC COORDINATES AND VELOCITIES
--------------------------------------------------------------------------------

ACE
 begin time read from input coords =  1100.000 ps

           Begin reading energy term weight changes/NMR restraints
 WEIGHT CHANGES:
 DUMPFREQ    100      0    0.000000    0.000000      0      0
                         ** No weight changes given **

 RESTRAINTS:
 Requested file redirections:
  DISANG    = run_-60_90.disang
  DUMPAVE   = run_-60_90.dat
 Restraints will be read from file: run_-60_90.disang
Here are comments from the DISANG input file:

                       Number of restraints read =     2

                  Done reading weight changes/NMR restraints

 Number of triangulated 3-point waters found:     1440

     Sum of charges from parm topology file =  -0.00000000
     Forcing neutrality...

--------------------------------------------------------------------------------
   4.  RESULTS
 NSTEP =      100   TIME(PS) =    1100.200  TEMP(K) =   293.80  PRESS =    50.3
 Etot   =    -11187.6608  EKtot   =      2537.9640  EPtot      =    -13725.6248
 BOND   =         4.3024  ANGLE   =         5.0164  DIHED      =        12.3034
 1-4 NB =         3.7096  1-4 EEL =        47.0125  VDWAALS    =      2038.3110
 EELEC  =    -15836.5834  EHBOND  =         0.0000  RESTRAINT  =         0.3033
 EAMBER (non-restraint)  =    -13725.9281
 EKCMT  =      1307.5811  VIRIAL  =      1259.7639  VOLUME     =     44001.9985
                                                    Density    =         0.9845
 Ewald error estimate:   0.2675E-03
 ------------------------------------------------------------------------------

      A V E R A G E S   O V E R   50000 S T E P S

 NSTEP =    50000   TIME(PS) =    1200.000  TEMP(K) =   300.02  PRESS =     1.3
 Etot   =    -11177.8494  EKtot   =      2591.6489  EPtot      =    -13769.4982
 BOND   =         3.4222  ANGLE   =         9.5633  DIHED      =        13.5685
 1-4 NB =         2.8659  1-4 EEL =        46.2775  VDWAALS    =      2043.5337
 EELEC  =    -15889.4287  EHBOND  =         0.0000  RESTRAINT  =         0.6995
 EAMBER (non-restraint)  =    -13770.1977
 EKCMT  =      1291.3411  VIRIAL  =      1290.1493  VOLUME     =     44013.3788
                                                    Density    =         0.9842
 Ewald error estimate:   0.1794E-03
 ------------------------------------------------------------------------------

      R M S  F L U C T U A T I O N S

 NSTEP =    50000   TIME(PS) =    1200.000  TEMP(K) =     4.55  PRESS =   288.0
 Etot   =        66.3492  EKtot   =        39.2909  EPtot      =        54.1178
 BOND   =         1.5662  ANGLE   =         2.4783  DIHED      =         1.1320
 1-4 NB =         0.6633  1-4 EEL =         1.9534  VDWAALS    =        57.5376
 EELEC  =        88.2671  EHBOND  =         0.0000  RESTRAINT  =         0.6821
 EAMBER (non-restraint)  =        53.4357
 EKCMT  =        27.7331  VIRIAL  =       272.0946  VOLUME     =        95.5769
                                                    Density    =         0.0021
 Ewald error estimate:   0.1367E-03
 ------------------------------------------------------------------------------
