-------------------------------------------------------
          Amber 12 SANDER                              2012
          -------------------------------------------------------

  [-O]verwriting output

File Assignments:

 Here is the input file:

production run
 &cntrl
   ig=769721,
   irest=1, ntx=5,
   nstlim=50000, dt=0.002,
   ntc=2, ntf=1, tol=0.000001,
   ntb=2, nscm=50000,
   ntt=3, gamma_ln=2.0, temp0=300.0,
   ntp=1, taup=5.0,
   cut=10.0,
   ioutfm=1,
   ntpr=100, ntwx=100, ntwr=50000, iwrap=1,
   nmropt=1,
 /
 &wt
  type='DUMPFREQ', istep1=100,
 /
 &wt
  type='END',
 /
DISANG=run_-30_45.disang
DUMPAVE=run_-30_45.dat

--------------------------------------------------------------------------------
   1.  RESOURCE   USE:
--------------------------------------------------------------------------------

 getting new box info from bottom of inpcrd

 NATOM  =    4342 NTYPES =       9 NBONH =    4332 MBONA  =       9
 NTHETH =      25 MTHETA =      11 NPHIH =      43 MPHIA  =      24
 NHPARM =       0 NPARM  =       0 NNB   =    5859 NRES   =    1443
 NBONA  =       9 NTHETA =      11 NPHIA =      24 NUMBND =      13
 NUMANG =      21 NPTRA  =      20 NATYP =      10 NPHB   =       1
 IFBOX  =       1 NMXRS  =      10 IFCAP =       0 NEXTRA =       0
 NCOPY  =       0

     BOX TYPE: RECTILINEAR

--------------------------------------------------------------------------------
   2.  CONTROL  DATA  FOR  THE  RUN
--------------------------------------------------------------------------------

ACE

General flags:
     imin    =       0, nmropt  =       1

Nature and format of input:
     ntx     =       5, irest   =       1, ntrx    =       1

Nature and format of output:
     ntxo    =       1, ntpr    =     100, ntrx    =       1, ntwr    =   50000
     iwrap   =       1, ntwx    =     100, ntwv    =       0, ntwe    =       0
     ioutfm  =       1, ntwprt  =       0, idecomp =       0, rbornstat=      0

Potential function:
     ntf     =       1, ntb     =       2, igb     =       0, nsnb    =      25
     ipol    =       0, gbsa    =       0, iesp    =       0
     dielc   =   1.00000, cut     =  10.00000, intdiel =   1.00000

Frozen or restrained atoms:
     ibelly  =       0, ntr     =       0

Molecular dynamics:
     nstlim  =     50000, nscm    =     50000, nrespa  =         1
     t       =   0.00000, dt      =   0.00200, vlimit  =  20.00000

Langevin dynamics temperature regulation:
     ig      =  769721
     temp0   = 300.00000, tempi   =   0.00000, gamma_ln=   2.00000

Pressure regulation:
     ntp     =       1
     pres0   =   1.00000, comp    =  44.60000, taup    =   5.00000

SHAKE:
     ntc     =       2, jfastw  =       0
     tol     =   0.00000

NMR refinement options:
     iscale  =       0, noeskp  =       1, ipnlty  =       1, mxsub   =       1
     scalm   = 100.00000, pencut  =   0.10000, tausw   =   0.10000

Ewald parameters:
     verbose =       0, ew_type =       0, nbflag  =       1, use_pme =       1
     vdwmeth =       1, eedmeth =       1, netfrc  =       1
     Box X =   35.327   Box Y =   37.508   Box Z =   33.303
     Alpha =   90.000   Beta  =   90.000   Gamma =   90.000
     NFFT1 =   36       NFFT2 =   40       NFFT3 =   36
     Cutoff=   10.000   Tol   =0.100E-04
     Ewald Coefficient =  0.27511
     Interpolation order =    4

--------------------------------------------------------------------------------
   3.  ATOMIC COORDINATES AND VELOCITIES
--------------------------------------------------------------------------------

ACE
 begin time read from input coords =  1100.000 ps

           Begin reading energy term weight changes/NMR restraints
 WEIGHT CHANGES:
 DUMPFREQ    100      0    0.000000    0.000000      0      0
                         ** No weight changes given **

 RESTRAINTS:
 Requested file redirections:
  DISANG    = run_-30_45.disang
  DUMPAVE   = run_-30_45.dat
 Restraints will be read from file: run_-30_45.disang
Here are comments from the DISANG input file:

                       Number of restraints read =     2

                  Done reading weight changes/NMR restraints

 Number of triangulated 3-point waters found:     1440

     Sum of charges from parm topology file =  -0.00000000
     Forcing neutrality...

--------------------------------------------------------------------------------
   4.  RESULTS
 NSTEP =      100   TIME(PS) =    1100.200  TEMP(K) =   299.48  PRESS =  -144.2
 Etot   =    -11120.4172  EKtot   =      2586.9653  EPtot      =    -13707.3826
 BOND   =         1.3772  ANGLE   =        14.5143  DIHED      =        11.5007
 1-4 NB =         1.8714  1-4 EEL =        41.3555  VDWAALS    =      1981.0366
 EELEC  =    -15759.1224  EHBOND  =         0.0000  RESTRAINT  =         0.0840
 EAMBER (non-restraint)  =    -13707.4666
 EKCMT  =      1321.6397  VIRIAL  =      1458.9638  VOLUME     =     44114.6662
                                                    Density    =         0.9820
 Ewald error estimate:   0.5271E-05
 ------------------------------------------------------------------------------

      A V E R A G E S   O V E R   50000 S T E P S

 NSTEP =    50000   TIME(PS) =    1200.000  TEMP(K) =   300.12  PRESS =    -1.0
 Etot   =    -11169.6951  EKtot   =      2592.5398  EPtot      =    -13762.2350
 BOND   =         3.6674  ANGLE   =        14.2855  DIHED      =        13.3305
 1-4 NB =         2.7110  1-4 EEL =        42.4360  VDWAALS    =      2045.2481
 EELEC  =    -15885.3192  EHBOND  =         0.0000  RESTRAINT  =         1.4057
 EAMBER (non-restraint)  =    -13763.6407
 EKCMT  =      1293.6166  VIRIAL  =      1294.5629  VOLUME     =     44022.1951
                                                    Density    =         0.9840
 Ewald error estimate:   0.1742E-03
 ------------------------------------------------------------------------------

      R M S  F L U C T U A T I O N S

 NSTEP =    50000   TIME(PS) =    1200.000  TEMP(K) =     4.38  PRESS =   277.1
 Etot   =        58.5444  EKtot   =        37.8523  EPtot      =        48.9622
 BOND   =         1.6221  ANGLE   =         2.7771  DIHED      =         1.5047
 1-4 NB =         0.6664  1-4 EEL =         1.6971  VDWAALS    =        55.6821
 EELEC  =        82.7816  EHBOND  =         0.0000  RESTRAINT  =         1.1622
 EAMBER (non-restraint)  =        47.7999
 EKCMT  =        27.1364  VIRIAL  =       263.0268  VOLUME     =        97.0034
                                                    Density    =         0.0022
 Ewald error estimate:   0.1328E-03
 ------------------------------------------------------------------------------
