-------------------------------------------------------
          Amber 12 SANDER                              2012
          -------------------------------------------------------

  [-O]verwriting output

File Assignments:

 Here is the input file:

production run
 &cntrl
   ig=471869,
   irest=1, ntx=5,
   nstlim=50000, dt=0.002,
   ntc=2, ntf=1, tol=0.000001,
   ntb=2, nscm=50000,
   ntt=3, gamma_ln=2.0, temp0=300.0,
   ntp=1, taup=5.0,
   cut=10.0,
   ioutfm=1,
   ntpr=100, ntwx=100, ntwr=50000, iwrap=1,
   nmropt=1,
 /
 &wt
  type='DUMPFREQ', istep1=100,
 /
 &wt
  type='END',
 /
DISANG=run_-120_165.disang
DUMPAVE=run_-120_165.dat

--------------------------------------------------------------------------------
   1.  RESOURCE   USE:
--------------------------------------------------------------------------------

 getting new box info from bottom of inpcrd

 NATOM  =    4342 NTYPES =       9 NBONH =    4332 MBONA  =       9
 NTHETH =      25 MTHETA =      11 NPHIH =      43 MPHIA  =      24
 NHPARM =       0 NPARM  =       0 NNB   =    5859 NRES   =    1443
 NBONA  =       9 NTHETA =      11 NPHIA =      24 NUMBND =      13
 NUMANG =      21 NPTRA  =      20 NATYP =      10 NPHB   =       1
 IFBOX  =       1 NMXRS  =      10 IFCAP =       0 NEXTRA =       0
 NCOPY  =       0

     BOX TYPE: RECTILINEAR

--------------------------------------------------------------------------------
   2.  CONTROL  DATA  FOR  THE  RUN
--------------------------------------------------------------------------------

ACE

General flags:
     imin    =       0, nmropt  =       1

Nature and format of input:
     ntx     =       5, irest   =       1, ntrx    =       1

Nature and format of output:
     ntxo    =       1, ntpr    =     100, ntrx    =       1, ntwr    =   50000
     iwrap   =       1, ntwx    =     100, ntwv    =       0, ntwe    =       0
     ioutfm  =       1, ntwprt  =       0, idecomp =       0, rbornstat=      0

Potential function:
     ntf     =       1, ntb     =       2, igb     =       0, nsnb    =      25
     ipol    =       0, gbsa    =       0, iesp    =       0
     dielc   =   1.00000, cut     =  10.00000, intdiel =   1.00000

Frozen or restrained atoms:
     ibelly  =       0, ntr     =       0

Molecular dynamics:
     nstlim  =     50000, nscm    =     50000, nrespa  =         1
     t       =   0.00000, dt      =   0.00200, vlimit  =  20.00000

Langevin dynamics temperature regulation:
     ig      =  471869
     temp0   = 300.00000, tempi   =   0.00000, gamma_ln=   2.00000

Pressure regulation:
     ntp     =       1
     pres0   =   1.00000, comp    =  44.60000, taup    =   5.00000

SHAKE:
     ntc     =       2, jfastw  =       0
     tol     =   0.00000

NMR refinement options:
     iscale  =       0, noeskp  =       1, ipnlty  =       1, mxsub   =       1
     scalm   = 100.00000, pencut  =   0.10000, tausw   =   0.10000

Ewald parameters:
     verbose =       0, ew_type =       0, nbflag  =       1, use_pme =       1
     vdwmeth =       1, eedmeth =       1, netfrc  =       1
     Box X =   35.308   Box Y =   37.487   Box Z =   33.284
     Alpha =   90.000   Beta  =   90.000   Gamma =   90.000
     NFFT1 =   36       NFFT2 =   40       NFFT3 =   36
     Cutoff=   10.000   Tol   =0.100E-04
     Ewald Coefficient =  0.27511
     Interpolation order =    4

--------------------------------------------------------------------------------
   3.  ATOMIC COORDINATES AND VELOCITIES
--------------------------------------------------------------------------------

ACE
 begin time read from input coords =  1100.000 ps

           Begin reading energy term weight changes/NMR restraints
 WEIGHT CHANGES:
 DUMPFREQ    100      0    0.000000    0.000000      0      0
                         ** No weight changes given **

 RESTRAINTS:
 Requested file redirections:
  DISANG    = run_-120_165.disang
  DUMPAVE   = run_-120_165.dat
 Restraints will be read from file: run_-120_165.disang
Here are comments from the DISANG input file:

                       Number of restraints read =     2

                  Done reading weight changes/NMR restraints

 Number of triangulated 3-point waters found:     1440

     Sum of charges from parm topology file =  -0.00000000
     Forcing neutrality...

--------------------------------------------------------------------------------
   4.  RESULTS
 NSTEP =      100   TIME(PS) =    1100.200  TEMP(K) =   297.88  PRESS =   -67.1
 Etot   =    -11270.2610  EKtot   =      2573.2185  EPtot      =    -13843.4795
 BOND   =         3.8021  ANGLE   =         9.3584  DIHED      =        14.0983
 1-4 NB =         2.9790  1-4 EEL =        46.0280  VDWAALS    =      2066.5314
 EELEC  =    -15986.3920  EHBOND  =         0.0000  RESTRAINT  =         0.1153
 EAMBER (non-restraint)  =    -13843.5948
 EKCMT  =      1292.6594  VIRIAL  =      1356.3836  VOLUME     =     44014.7608
                                                    Density    =         0.9842
 Ewald error estimate:   0.5142E-03
 ------------------------------------------------------------------------------

      A V E R A G E S   O V E R   50000 S T E P S

 NSTEP =    50000   TIME(PS) =    1200.000  TEMP(K) =   299.82  PRESS =    -3.4
 Etot   =    -11182.8296  EKtot   =      2589.9167  EPtot      =    -13772.7464
 BOND   =         3.2580  ANGLE   =         9.4259  DIHED      =        11.7682
 1-4 NB =         3.2791  1-4 EEL =        46.0096  VDWAALS    =      2042.0432
 EELEC  =    -15889.1554  EHBOND  =         0.0000  RESTRAINT  =         0.6249
 EAMBER (non-restraint)  =    -13773.3713
 EKCMT  =      1290.3284  VIRIAL  =      1293.5535  VOLUME     =     43980.4109
                                                    Density    =         0.9850
 Ewald error estimate:   0.1786E-03
 ------------------------------------------------------------------------------

      R M S  F L U C T U A T I O N S

 NSTEP =    50000   TIME(PS) =    1200.000  TEMP(K) =     4.37  PRESS =   283.0
 Etot   =        66.0126  EKtot   =        37.7853  EPtot      =        54.2560
 BOND   =         1.4866  ANGLE   =         2.4658  DIHED      =         1.1359
 1-4 NB =         0.7457  1-4 EEL =         2.1276  VDWAALS    =        56.8596
 EELEC  =        88.6222  EHBOND  =         0.0000  RESTRAINT  =         0.6255
 EAMBER (non-restraint)  =        53.6305
 EKCMT  =        26.8620  VIRIAL  =       267.3511  VOLUME     =        76.4401
                                                    Density    =         0.0017
 Ewald error estimate:   0.1342E-03
 ------------------------------------------------------------------------------
