-------------------------------------------------------
          Amber 12 SANDER                              2012
          -------------------------------------------------------

  [-O]verwriting output

File Assignments:

 Here is the input file:

production run
 &cntrl
   ig=447414,
   irest=1, ntx=5,
   nstlim=50000, dt=0.002,
   ntc=2, ntf=1, tol=0.000001,
   ntb=2, nscm=50000,
   ntt=3, gamma_ln=2.0, temp0=300.0,
   ntp=1, taup=5.0,
   cut=10.0,
   ioutfm=1,
   ntpr=100, ntwx=100, ntwr=50000, iwrap=1,
   nmropt=1,
 /
 &wt
  type='DUMPFREQ', istep1=100,
 /
 &wt
  type='END',
 /
DISANG=run_-45_90.disang
DUMPAVE=run_-45_90.dat

--------------------------------------------------------------------------------
   1.  RESOURCE   USE:
--------------------------------------------------------------------------------

 getting new box info from bottom of inpcrd

 NATOM  =    4342 NTYPES =       9 NBONH =    4332 MBONA  =       9
 NTHETH =      25 MTHETA =      11 NPHIH =      43 MPHIA  =      24
 NHPARM =       0 NPARM  =       0 NNB   =    5859 NRES   =    1443
 NBONA  =       9 NTHETA =      11 NPHIA =      24 NUMBND =      13
 NUMANG =      21 NPTRA  =      20 NATYP =      10 NPHB   =       1
 IFBOX  =       1 NMXRS  =      10 IFCAP =       0 NEXTRA =       0
 NCOPY  =       0

     BOX TYPE: RECTILINEAR

--------------------------------------------------------------------------------
   2.  CONTROL  DATA  FOR  THE  RUN
--------------------------------------------------------------------------------

ACE

General flags:
     imin    =       0, nmropt  =       1

Nature and format of input:
     ntx     =       5, irest   =       1, ntrx    =       1

Nature and format of output:
     ntxo    =       1, ntpr    =     100, ntrx    =       1, ntwr    =   50000
     iwrap   =       1, ntwx    =     100, ntwv    =       0, ntwe    =       0
     ioutfm  =       1, ntwprt  =       0, idecomp =       0, rbornstat=      0

Potential function:
     ntf     =       1, ntb     =       2, igb     =       0, nsnb    =      25
     ipol    =       0, gbsa    =       0, iesp    =       0
     dielc   =   1.00000, cut     =  10.00000, intdiel =   1.00000

Frozen or restrained atoms:
     ibelly  =       0, ntr     =       0

Molecular dynamics:
     nstlim  =     50000, nscm    =     50000, nrespa  =         1
     t       =   0.00000, dt      =   0.00200, vlimit  =  20.00000

Langevin dynamics temperature regulation:
     ig      =  447414
     temp0   = 300.00000, tempi   =   0.00000, gamma_ln=   2.00000

Pressure regulation:
     ntp     =       1
     pres0   =   1.00000, comp    =  44.60000, taup    =   5.00000

SHAKE:
     ntc     =       2, jfastw  =       0
     tol     =   0.00000

NMR refinement options:
     iscale  =       0, noeskp  =       1, ipnlty  =       1, mxsub   =       1
     scalm   = 100.00000, pencut  =   0.10000, tausw   =   0.10000

Ewald parameters:
     verbose =       0, ew_type =       0, nbflag  =       1, use_pme =       1
     vdwmeth =       1, eedmeth =       1, netfrc  =       1
     Box X =   35.286   Box Y =   37.464   Box Z =   33.264
     Alpha =   90.000   Beta  =   90.000   Gamma =   90.000
     NFFT1 =   36       NFFT2 =   40       NFFT3 =   36
     Cutoff=   10.000   Tol   =0.100E-04
     Ewald Coefficient =  0.27511
     Interpolation order =    4

--------------------------------------------------------------------------------
   3.  ATOMIC COORDINATES AND VELOCITIES
--------------------------------------------------------------------------------

ACE
 begin time read from input coords =  1100.000 ps

           Begin reading energy term weight changes/NMR restraints
 WEIGHT CHANGES:
 DUMPFREQ    100      0    0.000000    0.000000      0      0
                         ** No weight changes given **

 RESTRAINTS:
 Requested file redirections:
  DISANG    = run_-45_90.disang
  DUMPAVE   = run_-45_90.dat
 Restraints will be read from file: run_-45_90.disang
Here are comments from the DISANG input file:

                       Number of restraints read =     2

                  Done reading weight changes/NMR restraints

 Number of triangulated 3-point waters found:     1440

     Sum of charges from parm topology file =  -0.00000000
     Forcing neutrality...

--------------------------------------------------------------------------------
   4.  RESULTS
 NSTEP =      100   TIME(PS) =    1100.200  TEMP(K) =   292.60  PRESS =    64.8
 Etot   =    -11241.8138  EKtot   =      2527.6160  EPtot      =    -13769.4298
 BOND   =         3.5677  ANGLE   =         7.1755  DIHED      =        12.4060
 1-4 NB =         2.8517  1-4 EEL =        46.4605  VDWAALS    =      2045.4411
 EELEC  =    -15887.8930  EHBOND  =         0.0000  RESTRAINT  =         0.5606
 EAMBER (non-restraint)  =    -13769.9904
 EKCMT  =      1263.6219  VIRIAL  =      1202.0270  VOLUME     =     44002.4637
                                                    Density    =         0.9845
 Ewald error estimate:   0.4520E-03
 ------------------------------------------------------------------------------

      A V E R A G E S   O V E R   50000 S T E P S

 NSTEP =    50000   TIME(PS) =    1200.000  TEMP(K) =   300.04  PRESS =     3.0
 Etot   =    -11176.7638  EKtot   =      2591.8156  EPtot      =    -13768.5794
 BOND   =         3.4469  ANGLE   =        10.3189  DIHED      =        13.8725
 1-4 NB =         2.7597  1-4 EEL =        45.8529  VDWAALS    =      2043.4215
 EELEC  =    -15889.1117  EHBOND  =         0.0000  RESTRAINT  =         0.8599
 EAMBER (non-restraint)  =    -13769.4393
 EKCMT  =      1291.8811  VIRIAL  =      1289.0139  VOLUME     =     43991.4139
                                                    Density    =         0.9847
 Ewald error estimate:   0.1807E-03
 ------------------------------------------------------------------------------

      R M S  F L U C T U A T I O N S

 NSTEP =    50000   TIME(PS) =    1200.000  TEMP(K) =     4.59  PRESS =   285.8
 Etot   =        61.8713  EKtot   =        39.6122  EPtot      =        49.3276
 BOND   =         1.5494  ANGLE   =         2.5252  DIHED      =         1.2072
 1-4 NB =         0.6548  1-4 EEL =         1.8917  VDWAALS    =        56.0965
 EELEC  =        82.7084  EHBOND  =         0.0000  RESTRAINT  =         0.7947
 EAMBER (non-restraint)  =        48.5329
 EKCMT  =        27.3723  VIRIAL  =       271.1807  VOLUME     =        76.2468
                                                    Density    =         0.0017
 Ewald error estimate:   0.1353E-03
 ------------------------------------------------------------------------------
